LL_Report_PartII/A02_BaseCaseWithPPA_07062018.raw
0,100.0


1,'Costa su    ',115.0,1,0.0,0.0,1,1,1.0151717748,-7.0330670113,1
2,'Bayamon     ',115.0,1,0.0,0.0,1,1,1.0114413477,-8.6988832217,1
3,'Rio Laja    ',115.0,1,0.0,0.0,1,1,1.012029316,-9.8240304025,1
4,'Mayaguez    ',115.0,1,0.0,0.0,1,1,1.0273362271,-8.5186748622,1
5,'Aguadill    ',115.0,1,0.0,0.0,1,1,1.0162898687,-9.001897806,1
6,'Mora        ',115.0,1,0.0,0.0,1,1,1.0138110385,-9.113311271,1
7,'San Anto    ',115.0,1,0.0,0.0,1,1,1.0124606527,-9.2000660108,1
8,'Monacill    ',115.0,1,0.0,0.0,1,1,1.0099427508,-8.9610708728,1
9,'Aguas Bu    ',115.0,1,0.0,0.0,1,1,1.0094782946,-8.6227237668,1
10,'Aurora      ',115.0,1,0.0,0.0,1,1,1.0002146554,-7.0142769883,1
11,'Ecoelect    ',115.0,1,0.0,0.0,1,1,0.9662013122,-8.8505667713,1
12,'Arecibo     ',115.0,1,0.0,0.0,1,1,1.0067357007,-9.5861136493,1
13,'Toro Neg    ',115.0,1,0.0,0.0,1,1,0.9734018874,-9.945034618,1
14,'Ponce       ',115.0,1,0.0,0.0,1,1,0.9709997369,-8.2880931754,1
15,'San Seba    ',115.0,1,0.0,0.0,1,1,1.0141481305,-9.1585549833,1
16,'Don Boco    ',115.0,1,0.0,0.0,1,1,0.9944753285,-9.9449498727,1
17,'Pajaros     ',115.0,1,0.0,0.0,1,1,1.0102776787,-9.1373116822,1
18,'Ciales      ',115.0,1,0.0,0.0,1,1,1.0029341099,-9.6148914816,1
19,'Dos Boca    ',115.0,1,0.0,0.0,1,1,0.9944341782,-9.947902172,1
20,'Sabana L    ',115.0,1,0.0,0.0,1,1,1.0095347985,-9.0771689915,1
21,'Caguas      ',115.0,1,0.0,0.0,1,1,1.012580794,-7.9207414282,1
22,'San Juan    ',115.0,1,0.0,0.0,1,1,1.0109890551,-8.890558222,1
23,'Puerto N    ',115.0,1,0.0,0.0,1,1,1.0110040447,-8.8906979203,1
24,'Union Ca    ',115.0,1,0.0,0.0,1,1,1.0099784412,-9.2991955196,1
25,'San Juan    ',115.0,1,0.0,0.0,1,1,1.0111119623,-8.7906647431,1
26,'Hato Rey    ',115.0,1,0.0,0.0,1,1,1.0108642431,-8.9058833745,1
27,'Daguao      ',115.0,1,0.0,0.0,1,1,1.0154618837,-9.7670049252,1
28,'Trujillo    ',115.0,1,0.0,0.0,1,1,1.0120367715,-9.2980411682,1
29,'Fajardo     ',115.0,1,0.0,0.0,1,1,1.019089745,-11.0373687885,1
30,'Aguirre     ',115.0,3,0.0,0.0,1,1,0.9719753618,0.0,1
31,'Maunabo     ',115.0,1,0.0,0.0,1,1,0.9937023566,-8.6651286216,1
32,'Candeler    ',115.0,1,0.0,0.0,1,1,1.0092422974,-9.3522544168,1
33,'Humacao     ',115.0,1,0.0,0.0,1,1,1.0060905262,-9.7873814012,1
34,'Comerio     ',115.0,1,0.0,0.0,1,1,1.0019453658,-8.8928901799,1
35,'Coto Nor    ',115.0,1,0.0,0.0,1,1,1.0083263477,-10.2238872167,1
36,'Monte Ca    ',115.0,1,0.0,0.0,1,1,0.992883989,-11.5927724063,1
37,'Central     ',115.0,1,0.0,0.0,1,1,1.0019496903,-8.3198987001,1
38,'Cayey       ',115.0,1,0.0,0.0,1,1,1.0081923506,-8.192578312,1
39,'Toro Neg    ',115.0,1,0.0,0.0,1,1,1.0144358623,-8.6690353371,1
40,'Central     ',115.0,1,0.0,0.0,1,1,1.0105387871,-8.3527868128,1
41,'Planta d    ',115.0,1,0.0,0.0,1,1,1.0042415891,-8.581228983,1
42,'Planta d    ',115.0,1,0.0,0.0,1,1,1.0062147259,-7.6783532886,1
43,'Central     ',115.0,1,0.0,0.0,1,1,1.0034167206,-8.2128725711,1
44,'Rio Blan    ',115.0,1,0.0,0.0,1,1,1.0143140334,-9.3527402968,1
45,'Quebrada    ',115.0,1,0.0,0.0,1,1,0.9996913567,-9.9762469524,1
46,'Caonilla    ',115.0,2,0.0,0.0,1,1,0.9961503544,-9.8897570897,1
47,'Loiza Ta    ',115.0,1,0.0,0.0,1,1,0.9941590815,-9.9612013175,1
48,'Yabucoa     ',115.0,1,0.0,0.0,1,1,1.0066268926,-9.0607988353,1
49,'Planta H    ',115.0,1,0.0,0.0,1,1,1.0044428638,-8.6366574936,1
50,'Olimpo T    ',115.0,1,0.0,0.0,1,1,1.003506891,-8.2404180637,1
51,'Aguas Bu    ',230.0,1,0.0,0.0,1,1,1.027364801,-7.8642020745,1
52,'Aguirre_    ',230.0,1,0.0,0.0,1,1,1.0284960711,-6.1786898567,1
53,'Aurora_H    ',230.0,1,0.0,0.0,1,1,1.0258528302,-7.9936602701,1
54,'Bayamon_    ',230.0,1,0.0,0.0,1,1,1.0275726172,-8.0811326606,1
55,'Candeler    ',230.0,1,0.0,0.0,1,1,1.0224839025,-8.4315815503,1
56,'Comerio_    ',230.0,1,0.0,0.0,1,1,1.0083870992,-8.6545106396,1
57,'Costa su    ',230.0,1,0.0,0.0,1,1,1.0366163084,-7.1518680313,1
58,'Coto Nor    ',230.0,1,0.0,0.0,1,1,1.0302314499,-8.2722836721,1
59,'Mayaguez    ',230.0,1,0.0,0.0,1,1,1.0376290897,-7.7615436673,1
60,'Rio Blan    ',230.0,1,0.0,0.0,1,1,1.0246515084,-8.5605783269,1
61,'Sabana L    ',230.0,1,0.0,0.0,1,1,1.026713132,-8.2447438835,1
62,'kVSub19     ',38.0,1,0.0,0.0,1,1,0.9961919686,-10.1796965868,1
63,'kVSub21     ',38.0,1,0.0,0.0,1,1,1.0123902636,-9.1003599442,1
64,'kVSub28     ',38.0,1,0.0,0.0,1,1,1.012390996,-9.1003798152,1
65,'kVSub46     ',38.0,1,0.0,0.0,1,1,1.0123912751,-9.1003764752,1
66,'kVSub66     ',38.0,1,0.0,0.0,1,1,0.980952872,-10.7851800429,1
67,'kVSub124    ',38.0,1,0.0,0.0,1,1,1.0123907633,-9.1003553112,1
68,'kVSub41     ',38.0,1,0.0,0.0,1,1,1.0027767945,-5.533581872,1
69,'kVSub0      ',38.0,2,0.0,0.0,1,1,1.0027768351,-5.5335274424,1
70,'kVSub102    ',38.0,1,0.0,0.0,1,1,1.0123903444,-9.1003703878,1
71,'kVSub139    ',38.0,1,0.0,0.0,1,1,0.9809526218,-10.7852251127,1
72,'kVSub285    ',38.0,1,0.0,0.0,1,1,0.9567539122,-10.0154132384,1
73,'kVSub297    ',38.0,1,0.0,0.0,1,1,1.0059402679,-12.5647159301,1
74,'kVSub136    ',38.0,1,0.0,0.0,1,1,1.0123973898,-9.1001210854,1
75,'kVSub142    ',38.0,1,0.0,0.0,1,1,0.989118339,-11.7679956979,1
76,'kVSub192    ',38.0,1,0.0,0.0,1,1,1.0002052444,-10.1100214647,1
77,'kVSub294    ',38.0,1,0.0,0.0,1,1,0.9526696333,-16.1430485528,1
78,'kVSub88     ',38.0,1,0.0,0.0,1,1,1.0003400087,-9.0887997826,1
79,'kVSub83     ',38.0,1,0.0,0.0,1,1,1.0027766824,-5.533583638,1
80,'kVSub239    ',38.0,1,0.0,0.0,1,1,1.0123885236,-9.1008864124,1
81,'kVSub245    ',38.0,1,0.0,0.0,1,1,1.0123922877,-9.1003401579,1
82,'kVSub264    ',38.0,1,0.0,0.0,1,1,1.0123888781,-9.1008053737,1
83,'kVSub299    ',38.0,1,0.0,0.0,1,1,1.0123910079,-9.1003780667,1
84,'kVSub165    ',38.0,1,0.0,0.0,1,1,0.9809526036,-10.7852269983,1
85,'kVSub182    ',38.0,1,0.0,0.0,1,1,0.9809526042,-10.7852245402,1
86,'kVSub288    ',38.0,1,0.0,0.0,1,1,0.9658359996,-10.8749326844,1
87,'kVSub125    ',38.0,1,0.0,0.0,1,1,1.0123912756,-9.1003766262,1
88,'kVSub230    ',38.0,1,0.0,0.0,1,1,1.0123903124,-9.1003757424,1
89,'kVSub54     ',38.0,1,0.0,0.0,1,1,1.0123912789,-9.1003763583,1
90,'kVSub100    ',38.0,1,0.0,0.0,1,1,1.0123910795,-9.1003717532,1
91,'kVSub260    ',38.0,1,0.0,0.0,1,1,1.0123892142,-9.1007516029,1
92,'kVSub53     ',38.0,1,0.0,0.0,1,1,0.9949299919,-10.549773513,1
93,'kVSub2      ',38.0,2,0.0,0.0,1,1,1.0027767995,-5.5335799481,1
94,'kVSub58     ',38.0,1,0.0,0.0,1,1,1.012391275,-9.1003767214,1
95,'kVSub178    ',38.0,1,0.0,0.0,1,1,1.0123883823,-9.1009157164,1
96,'kVSub70     ',38.0,1,0.0,0.0,1,1,1.0123910774,-9.1003704653,1
97,'kVSub1      ',38.0,2,0.0,0.0,1,1,0.9809526302,-10.785225803,1
98,'kVSub101    ',38.0,1,0.0,0.0,1,1,1.012390345,-9.1003688642,1
99,'kVSub103    ',38.0,1,0.0,0.0,1,1,1.0123906478,-9.1003762996,1
100,'kVSub104    ',38.0,1,0.0,0.0,1,1,1.0123910099,-9.1003778176,1
101,'kVSub105    ',38.0,1,0.0,0.0,1,1,1.0123910067,-9.1003776362,1
102,'kVSub107    ',38.0,1,0.0,0.0,1,1,1.0123906119,-9.1004078372,1
103,'kVSub108    ',38.0,1,0.0,0.0,1,1,1.012390609,-9.1004083387,1
104,'kVSub109    ',38.0,1,0.0,0.0,1,1,1.0027768137,-5.5335311822,1
105,'kVSub11     ',38.0,1,0.0,0.0,1,1,1.0123906343,-9.1004478656,1
106,'kVSub110    ',38.0,1,0.0,0.0,1,1,1.0027768159,-5.5335307954,1
107,'kVSub111    ',38.0,1,0.0,0.0,1,1,1.0027768137,-5.5335311843,1
108,'kVSub112    ',38.0,1,0.0,0.0,1,1,1.0027768139,-5.5335311479,1
109,'kVSub113    ',38.0,1,0.0,0.0,1,1,1.0027768161,-5.5335307601,1
110,'kVSub114    ',38.0,1,0.0,0.0,1,1,1.0027768159,-5.5335307954,1
111,'kVSub115    ',38.0,1,0.0,0.0,1,1,1.0123906799,-9.1003999978,1
112,'kVSub116    ',38.0,1,0.0,0.0,1,1,1.0,0.0,1
113,'kVSub117    ',38.0,1,0.0,0.0,1,1,1.0,0.0,1
114,'kVSub118    ',38.0,1,0.0,0.0,1,1,1.0123912797,-9.1003760892,1
115,'kVSub120    ',38.0,1,0.0,0.0,1,1,1.0123912797,-9.1003760893,1
116,'kVSub121    ',38.0,1,0.0,0.0,1,1,1.0123912797,-9.1003760857,1
117,'kVSub122    ',38.0,1,0.0,0.0,1,1,1.012391279,-9.1003762047,1
118,'kVSub123    ',38.0,1,0.0,0.0,1,1,1.0123912657,-9.1003755277,1
119,'kVSub126    ',38.0,1,0.0,0.0,1,1,1.0123885291,-9.1008845208,1
120,'kVSub127    ',38.0,1,0.0,0.0,1,1,1.0123885274,-9.1008848176,1
121,'kVSub128    ',38.0,1,0.0,0.0,1,1,1.0,0.0,1
122,'kVSub129    ',38.0,1,0.0,0.0,1,1,1.0123927665,-9.1003170098,1
123,'kVSub13     ',38.0,1,0.0,0.0,1,1,1.0123909457,-9.1003768915,1
124,'kVSub130    ',38.0,1,0.0,0.0,1,1,1.0123996536,-9.0999975478,1
125,'kVSub131    ',38.0,1,0.0,0.0,1,1,1.0123922134,-9.1003412705,1
126,'kVSub132    ',38.0,1,0.0,0.0,1,1,1.0123894943,-9.1007002971,1
127,'kVSub133    ',38.0,1,0.0,0.0,1,1,1.0123921694,-9.1003435022,1
128,'kVSub134    ',38.0,1,0.0,0.0,1,1,1.0124000447,-9.0999847156,1
129,'kVSub135    ',38.0,1,0.0,0.0,1,1,0.9809525966,-10.7852269839,1
130,'kVSub137    ',38.0,1,0.0,0.0,1,1,1.012397567,-9.1001009168,1
131,'kVSub138    ',38.0,1,0.0,0.0,1,1,1.0123921465,-9.1003474407,1
132,'kVSub14     ',38.0,1,0.0,0.0,1,1,1.0,0.0,1
133,'kVSub140    ',38.0,1,0.0,0.0,1,1,0.980952598,-10.7852267236,1
134,'kVSub141    ',38.0,1,0.0,0.0,1,1,1.0123919776,-9.1003765252,1
135,'kVSub143    ',38.0,1,0.0,0.0,1,1,0.9891182834,-11.7680054918,1
136,'kVSub144    ',38.0,1,0.0,0.0,1,1,1.0123999716,-9.0999868076,1
137,'kVSub145    ',38.0,1,0.0,0.0,1,1,1.0123919897,-9.1003744478,1
138,'kVSub147    ',38.0,1,0.0,0.0,1,1,1.0059402592,-12.5647174331,1
139,'kVSub148    ',38.0,1,0.0,0.0,1,1,1.0124000506,-9.0999837065,1
140,'kVSub149    ',38.0,1,0.0,0.0,1,1,1.0124000458,-9.0999845375,1
141,'kVSub150    ',38.0,1,0.0,0.0,1,1,0.9809525801,-10.7852287009,1
142,'kVSub151    ',38.0,1,0.0,0.0,1,1,1.0123883624,-9.1009167717,1
143,'kVSub152    ',38.0,1,0.0,0.0,1,1,1.0124000465,-9.0999844188,1
144,'kVSub153    ',38.0,1,0.0,0.0,1,1,0.9526694314,-16.1430812434,1
145,'kVSub154    ',38.0,1,0.0,0.0,1,1,1.0123920017,-9.1003723699,1
146,'kVSub155    ',38.0,1,0.0,0.0,1,1,0.9809525966,-10.785226984,1
147,'kVSub156    ',38.0,1,0.0,0.0,1,1,1.0123913605,-9.1003729531,1
148,'kVSub157    ',38.0,1,0.0,0.0,1,1,0.9809525921,-10.7852275028,1
149,'kVSub158    ',38.0,1,0.0,0.0,1,1,0.980952598,-10.7852267236,1
150,'kVSub159    ',38.0,1,0.0,0.0,1,1,0.9809525829,-10.7852282092,1
151,'kVSub16     ',38.0,1,0.0,0.0,1,1,1.0,0.0,1
152,'kVSub161    ',38.0,1,0.0,0.0,1,1,0.9809525829,-10.7852282092,1
153,'kVSub162    ',38.0,1,0.0,0.0,1,1,0.9809525801,-10.7852287009,1
154,'kVSub163    ',38.0,1,0.0,0.0,1,1,0.9809525927,-10.7852273616,1
155,'kVSub164    ',38.0,1,0.0,0.0,1,1,1.0124000499,-9.0999838252,1
156,'kVSub166    ',38.0,1,0.0,0.0,1,1,1.0123882056,-9.1009437793,1
157,'kVSub168    ',38.0,1,0.0,0.0,1,1,1.012391238,-9.1003836451,1
158,'kVSub169    ',38.0,1,0.0,0.0,1,1,1.0123912797,-9.1003760893,1
159,'kVSub17     ',38.0,1,0.0,0.0,1,1,1.0123910068,-9.1003776363,1
160,'kVSub170    ',38.0,1,0.0,0.0,1,1,1.0123914417,-9.1003701171,1
161,'kVSub171    ',38.0,1,0.0,0.0,1,1,1.0123882008,-9.1009446103,1
162,'kVSub172    ',38.0,1,0.0,0.0,1,1,1.0123882008,-9.1009446103,1
163,'kVSub173    ',38.0,1,0.0,0.0,1,1,1.012388278,-9.1009313143,1
164,'kVSub174    ',38.0,1,0.0,0.0,1,1,0.9809526482,-10.7852204979,1
165,'kVSub175    ',38.0,1,0.0,0.0,1,1,1.0123882096,-9.1009430868,1
166,'kVSub176    ',38.0,1,0.0,0.0,1,1,1.0123882056,-9.1009437793,1
167,'kVSub177    ',38.0,1,0.0,0.0,1,1,1.0123884021,-9.1009099456,1
168,'kVSub179    ',38.0,1,0.0,0.0,1,1,1.0123897399,-9.1006556546,1
169,'kVSub18     ',38.0,1,0.0,0.0,1,1,1.0,0.0,1
170,'kVSub180    ',38.0,1,0.0,0.0,1,1,1.0123921694,-9.1003435022,1
171,'kVSub181    ',38.0,1,0.0,0.0,1,1,0.9526695709,-16.1430595015,1
172,'kVSub183    ',38.0,1,0.0,0.0,1,1,0.9809525829,-10.7852282092,1
173,'kVSub184    ',38.0,1,0.0,0.0,1,1,1.0123884055,-9.100909352,1
174,'kVSub185    ',38.0,1,0.0,0.0,1,1,1.0123882297,-9.1009396243,1
175,'kVSub186    ',38.0,1,0.0,0.0,1,1,1.0,0.0,1
176,'kVSub187    ',38.0,1,0.0,0.0,1,1,1.0,0.0,1
177,'kVSub188    ',38.0,1,0.0,0.0,1,1,1.0,0.0,1
178,'kVSub189    ',38.0,1,0.0,0.0,1,1,0.9567538969,-10.0154160298,1
179,'kVSub190    ',38.0,1,0.0,0.0,1,1,1.0123882096,-9.1009430868,1
180,'kVSub191    ',38.0,1,0.0,0.0,1,1,1.0,0.0,1
181,'kVSub193    ',38.0,1,0.0,0.0,1,1,1.0,0.0,1
182,'kVSub194    ',38.0,1,0.0,0.0,1,1,1.0,0.0,1
183,'kVSub195    ',38.0,1,0.0,0.0,1,1,1.0,0.0,1
184,'kVSub196    ',38.0,1,0.0,0.0,1,1,0.956753896,-10.0154161849,1
185,'kVSub197    ',38.0,1,0.0,0.0,1,1,1.0123919776,-9.1003765254,1
186,'kVSub198    ',38.0,1,0.0,0.0,1,1,0.9809525885,-10.785231183,1
187,'kVSub20     ',38.0,1,0.0,0.0,1,1,1.0123910067,-9.1003776362,1
188,'kVSub200    ',38.0,1,0.0,0.0,1,1,1.0123882096,-9.1009430868,1
189,'kVSub203    ',38.0,1,0.0,0.0,1,1,0.9891182911,-11.7680041315,1
190,'kVSub204    ',38.0,1,0.0,0.0,1,1,1.0123884055,-9.100909352,1
191,'kVSub205    ',38.0,1,0.0,0.0,1,1,1.0123885291,-9.1008845208,1
192,'kVSub206    ',38.0,1,0.0,0.0,1,1,1.0123912797,-9.1003760892,1
193,'kVSub207    ',38.0,1,0.0,0.0,1,1,1.0059402589,-12.5647174932,1
194,'kVSub208    ',38.0,1,0.0,0.0,1,1,1.0123893137,-9.100733233,1
195,'kVSub209    ',38.0,1,0.0,0.0,1,1,1.0123894943,-9.1007002971,1
196,'kVSub210    ',38.0,1,0.0,0.0,1,1,0.9809526196,-10.785225651,1
197,'kVSub211    ',38.0,1,0.0,0.0,1,1,0.980952598,-10.7852267236,1
198,'kVSub212    ',38.0,1,0.0,0.0,1,1,0.980952598,-10.7852267236,1
199,'kVSub213    ',38.0,1,0.0,0.0,1,1,0.952669457,-16.1430808116,1
200,'kVSub214    ',38.0,1,0.0,0.0,1,1,1.0059402592,-12.5647174331,1
...
0 / END OF BUS DATA, BEGIN LOAD DATA
62,' C',1,1,1,6.3887612707,2.0998842815,0.0,0.0,0.0,0.0,1
62,' I',1,1,1,29.8142192634,9.7994599802,0.0,0.0,0.0,0.0,1
62,' P',1,1,1,6.3887612707,2.0998842815,0.0,0.0,0.0,0.0,1
63,' C',1,1,1,3.1402522837,1.0321510119,0.0,0.0,0.0,0.0,1
63,' I',1,1,1,14.6545106572,4.8167047222,0.0,0.0,0.0,0.0,1
63,' P',1,1,1,3.1402522837,1.0321510119,0.0,0.0,0.0,0.0,1
64,' C',1,1,1,6.3887612707,2.0998842815,0.0,0.0,0.0,0.0,1
64,' I',1,1,1,29.8142192634,9.7994599802,0.0,0.0,0.0,0.0,1
64,' P',1,1,1,6.3887612707,2.0998842815,0.0,0.0,0.0,0.0,1
65,' C',1,1,1,6.3887612707,2.0998842815,0.0,0.0,0.0,0.0,1
65,' I',1,1,1,29.8142192634,9.7994599802,0.0,0.0,0.0,0.0,1
65,' P',1,1,1,6.3887612707,2.0998842815,0.0,0.0,0.0,0.0,1
66,' C',1,1,1,3.1402522837,1.0321510119,0.0,0.0,0.0,0.0,1
66,' I',1,1,1,14.6545106572,4.8167047222,0.0,0.0,0.0,0.0,1
66,' P',1,1,1,3.1402522837,1.0321510119,0.0,0.0,0.0,0.0,1
67,' C',1,1,1,3.1402522837,1.0321510119,0.0,0.0,0.0,0.0,1
67,' I',1,1,1,14.6545106572,4.8167047222,0.0,0.0,0.0,0.0,1
67,' P',1,1,1,3.1402522837,1.0321510119,0.0,0.0,0.0,0.0,1
68,' C',1,1,1,6.3887612707,2.0998842815,0.0,0.0,0.0,0.0,1
68,' I',1,1,1,29.8142192634,9.7994599802,0.0,0.0,0.0,0.0,1
68,' P',1,1,1,6.3887612707,2.0998842815,0.0,0.0,0.0,0.0,1
69,' C',1,1,1,3.1402522837,1.0321510119,0.0,0.0,0.0,0.0,1
69,' I',1,1,1,14.6545106572,4.8167047222,0.0,0.0,0.0,0.0,1
69,' P',1,1,1,3.1402522837,1.0321510119,0.0,0.0,0.0,0.0,1
70,' C',1,1,1,6.3887612707,2.0998842815,0.0,0.0,0.0,0.0,1
70,' I',1,1,1,29.8142192634,9.7994599802,0.0,0.0,0.0,0.0,1
70,' P',1,1,1,6.3887612707,2.0998842815,0.0,0.0,0.0,0.0,1
71,' C',1,1,1,3.1402522837,1.0321510119,0.0,0.0,0.0,0.0,1
71,' I',1,1,1,14.6545106572,4.8167047222,0.0,0.0,0.0,0.0,1
71,' P',1,1,1,3.1402522837,1.0321510119,0.0,0.0,0.0,0.0,1
72,' C',1,1,1,3.1402522837,1.0321510119,0.0,0.0,0.0,0.0,1
72,' I',1,1,1,14.6545106572,4.8167047222,0.0,0.0,0.0,0.0,1
72,' P',1,1,1,3.1402522837,1.0321510119,0.0,0.0,0.0,0.0,1
73,' C',1,1,1,6.3887612707,2.0998842815,0.0,0.0,0.0,0.0,1
73,' I',1,1,1,29.8142192634,9.7994599802,0.0,0.0,0.0,0.0,1
73,' P',1,1,1,6.3887612707,2.0998842815,0.0,0.0,0.0,0.0,1
74,' C',1,1,1,6.3887612707,2.0998842815,0.0,0.0,0.0,0.0,1
74,' I',1,1,1,29.8142192634,9.7994599802,0.0,0.0,0.0,0.0,1
74,' P',1,1,1,6.3887612707,2.0998842815,0.0,0.0,0.0,0.0,1
75,' C',1,1,1,6.3887612707,2.0998842815,0.0,0.0,0.0,0.0,1
75,' I',1,1,1,29.8142192634,9.7994599802,0.0,0.0,0.0,0.0,1
75,' P',1,1,1,6.3887612707,2.0998842815,0.0,0.0,0.0,0.0,1
76,' C',1,1,1,6.3887612707,2.0998842815,0.0,0.0,0.0,0.0,1
76,' I',1,1,1,29.8142192634,9.7994599802,0.0,0.0,0.0,0.0,1
76,' P',1,1,1,6.3887612707,2.0998842815,0.0,0.0,0.0,0.0,1
77,' C',1,1,1,6.3887612707,2.0998842815,0.0,0.0,0.0,0.0,1
77,' I',1,1,1,29.8142192634,9.7994599802,0.0,0.0,0.0,0.0,1
77,' P',1,1,1,6.3887612707,2.0998842815,0.0,0.0,0.0,0.0,1
78,' C',1,1,1,6.3887612707,2.0998842815,0.0,0.0,0.0,0.0,1
78,' I',1,1,1,29.8142192634,9.7994599802,0.0,0.0,0.0,0.0,1
78,' P',1,1,1,6.3887612707,2.0998842815,0.0,0.0,0.0,0.0,1
79,' C',1,1,1,6.3887612707,2.0998842815,0.0,0.0,0.0,0.0,1
79,' I',1,1,1,29.8142192634,9.7994599802,0.0,0.0,0.0,0.0,1
79,' P',1,1,1,6.3887612707,2.0998842815,0.0,0.0,0.0,0.0,1
80,' C',1,1,1,6.3887612707,2.0998842815,0.0,0.0,0.0,0.0,1
80,' I',1,1,1,29.8142192634,9.7994599802,0.0,0.0,0.0,0.0,1
80,' P',1,1,1,6.3887612707,2.0998842815,0.0,0.0,0.0,0.0,1
81,' C',1,1,1,6.3887612707,2.0998842815,0.0,0.0,0.0,0.0,1
81,' I',1,1,1,29.8142192634,9.7994599802,0.0,0.0,0.0,0.0,1
81,' P',1,1,1,6.3887612707,2.0998842815,0.0,0.0,0.0,0.0,1
82,' C',1,1,1,6.3887612707,2.0998842815,0.0,0.0,0.0,0.0,1
82,' I',1,1,1,29.8142192634,9.7994599802,0.0,0.0,0.0,0.0,1
82,' P',1,1,1,6.3887612707,2.0998842815,0.0,0.0,0.0,0.0,1
83,' C',1,1,1,3.1402522837,1.0321510119,0.0,0.0,0.0,0.0,1
83,' I',1,1,1,14.6545106572,4.8167047222,0.0,0.0,0.0,0.0,1
83,' P',1,1,1,3.1402522837,1.0321510119,0.0,0.0,0.0,0.0,1
84,' C',1,1,1,6.3887612707,2.0998842815,0.0,0.0,0.0,0.0,1
84,' I',1,1,1,29.8142192634,9.7994599802,0.0,0.0,0.0,0.0,1
84,' P',1,1,1,6.3887612707,2.0998842815,0.0,0.0,0.0,0.0,1
85,' C',1,1,1,3.1402522837,1.0321510119,0.0,0.0,0.0,0.0,1
85,' I',1,1,1,14.6545106572,4.8167047222,0.0,0.0,0.0,0.0,1
85,' P',1,1,1,3.1402522837,1.0321510119,0.0,0.0,0.0,0.0,1
86,' C',1,1,1,3.1402522837,1.0321510119,0.0,0.0,0.0,0.0,1
86,' I',1,1,1,14.6545106572,4.8167047222,0.0,0.0,0.0,0.0,1
86,' P',1,1,1,3.1402522837,1.0321510119,0.0,0.0,0.0,0.0,1
87,' C',1,1,1,3.1402522837,1.0321510119,0.0,0.0,0.0,0.0,1
87,' I',1,1,1,14.6545106572,4.8167047222,0.0,0.0,0.0,0.0,1
87,' P',1,1,1,3.1402522837,1.0321510119,0.0,0.0,0.0,0.0,1
88,' C',1,1,1,3.1402522837,1.0321510119,0.0,0.0,0.0,0.0,1
88,' I',1,1,1,14.6545106572,4.8167047222,0.0,0.0,0.0,0.0,1
88,' P',1,1,1,3.1402522837,1.0321510119,0.0,0.0,0.0,0.0,1
89,' C',1,1,1,3.1402522837,1.0321510119,0.0,0.0,0.0,0.0,1
89,' I',1,1,1,14.6545106572,4.8167047222,0.0,0.0,0.0,0.0,1
89,' P',1,1,1,3.1402522837,1.0321510119,0.0,0.0,0.0,0.0,1
90,' C',1,1,1,6.3887612707,2.0998842815,0.0,0.0,0.0,0.0,1
90,' I',1,1,1,29.8142192634,9.7994599802,0.0,0.0,0.0,0.0,1
90,' P',1,1,1,6.3887612707,2.0998842815,0.0,0.0,0.0,0.0,1
91,' C',1,1,1,3.1402522837,1.0321510119,0.0,0.0,0.0,0.0,1
91,' I',1,1,1,14.6545106572,4.8167047222,0.0,0.0,0.0,0.0,1
91,' P',1,1,1,3.1402522837,1.0321510119,0.0,0.0,0.0,0.0,1
92,' C',1,1,1,3.1402522837,1.0321510119,0.0,0.0,0.0,0.0,1
92,' I',1,1,1,14.6545106572,4.8167047222,0.0,0.0,0.0,0.0,1
92,' P',1,1,1,3.1402522837,1.0321510119,0.0,0.0,0.0,0.0,1
93,' C',1,1,1,6.3887612707,2.0998842815,0.0,0.0,0.0,0.0,1
93,' I',1,1,1,29.8142192634,9.7994599802,0.0,0.0,0.0,0.0,1
93,' P',1,1,1,6.3887612707,2.0998842815,0.0,0.0,0.0,0.0,1
94,' C',1,1,1,6.3887612707,2.0998842815,0.0,0.0,0.0,0.0,1
94,' I',1,1,1,29.8142192634,9.7994599802,0.0,0.0,0.0,0.0,1
94,' P',1,1,1,6.3887612707,2.0998842815,0.0,0.0,0.0,0.0,1
95,' C',1,1,1,6.3887612707,2.0998842815,0.0,0.0,0.0,0.0,1
95,' I',1,1,1,29.8142192634,9.7994599802,0.0,0.0,0.0,0.0,1
95,' P',1,1,1,6.3887612707,2.0998842815,0.0,0.0,0.0,0.0,1
96,' C',1,1,1,3.1402522837,1.0321510119,0.0,0.0,0.0,0.0,1
96,' I',1,1,1,14.6545106572,4.8167047222,0.0,0.0,0.0,0.0,1
96,' P',1,1,1,3.1402522837,1.0321510119,0.0,0.0,0.0,0.0,1
97,' C',1,1,1,1.6723237014,0.5496662194,0.0,0.0,0.0,0.0,1
97,' I',1,1,1,7.8041772731,2.5651090237,0.0,0.0,0.0,0.0,1
97,' P',1,1,1,1.6723237014,0.5496662194,0.0,0.0,0.0,0.0,1
98,' C',1,1,1,1.6723237014,0.5496662194,0.0,0.0,0.0,0.0,1
98,' I',1,1,1,7.8041772731,2.5651090237,0.0,0.0,0.0,0.0,1
98,' P',1,1,1,1.6723237014,0.5496662194,0.0,0.0,0.0,0.0,1
99,' C',1,1,1,1.6723237014,0.5496662194,0.0,0.0,0.0,0.0,1
99,' I',1,1,1,7.8041772731,2.5651090237,0.0,0.0,0.0,0.0,1
99,' P',1,1,1,1.6723237014,0.5496662194,0.0,0.0,0.0,0.0,1
100,' C',1,1,1,1.6723237014,0.5496662194,0.0,0.0,0.0,0.0,1
100,' I',1,1,1,7.8041772731,2.5651090237,0.0,0.0,0.0,0.0,1
100,' P',1,1,1,1.6723237014,0.5496662194,0.0,0.0,0.0,0.0,1
101,' C',1,1,1,0.5574412338,0.1832220731,0.0,0.0,0.0,0.0,1
101,' I',1,1,1,2.6013924244,0.8550363412,0.0,0.0,0.0,0.0,1
101,' P',1,1,1,0.5574412338,0.1832220731,0.0,0.0,0.0,0.0,1
102,' C',1,1,1,0.5574412338,0.1832220731,0.0,0.0,0.0,0.0,1
102,' I',1,1,1,2.6013924244,0.8550363412,0.0,0.0,0.0,0.0,1
102,' P',1,1,1,0.5574412338,0.1832220731,0.0,0.0,0.0,0.0,1
103,' C',1,1,1,1.6723237014,0.5496662194,0.0,0.0,0.0,0.0,1
103,' I',1,1,1,7.8041772731,2.5651090237,0.0,0.0,0.0,0.0,1
103,' P',1,1,1,1.6723237014,0.5496662194,0.0,0.0,0.0,0.0,1
104,' C',1,1,1,1.6723237014,0.5496662194,0.0,0.0,0.0,0.0,1
104,' I',1,1,1,7.8041772731,2.5651090237,0.0,0.0,0.0,0.0,1
104,' P',1,1,1,1.6723237014,0.5496662194,0.0,0.0,0.0,0.0,1
105,' C',1,1,1,1.6723237014,0.5496662194,0.0,0.0,0.0,0.0,1
105,' I',1,1,1,7.8041772731,2.5651090237,0.0,0.0,0.0,0.0,1
105,' P',1,1,1,1.6723237014,0.5496662194,0.0,0.0,0.0,0.0,1
106,' C',1,1,1,0.5574412338,0.1832220731,0.0,0.0,0.0,0.0,1
106,' I',1,1,1,2.6013924244,0.8550363412,0.0,0.0,0.0,0.0,1
106,' P',1,1,1,0.5574412338,0.1832220731,0.0,0.0,0.0,0.0,1
107,' C',1,1,1,1.6723237014,0.5496662194,0.0,0.0,0.0,0.0,1
107,' I',1,1,1,7.8041772731,2.5651090237,0.0,0.0,0.0,0.0,1
107,' P',1,1,1,1.6723237014,0.5496662194,0.0,0.0,0.0,0.0,1
108,' C',1,1,1,1.6723237014,0.5496662194,0.0,0.0,0.0,0.0,1
108,' I',1,1,1,7.8041772731,2.5651090237,0.0,0.0,0.0,0.0,1
108,' P',1,1,1,1.6723237014,0.5496662194,0.0,0.0,0.0,0.0,1
109,' C',1,1,1,0.5574412338,0.1832220731,0.0,0.0,0.0,0.0,1
109,' I',1,1,1,2.6013924244,0.8550363412,0.0,0.0,0.0,0.0,1
109,' P',1,1,1,0.5574412338,0.1832220731,0.0,0.0,0.0,0.0,1
110,' C',1,1,1,0.5574412338,0.1832220731,0.0,0.0,0.0,0.0,1
110,' I',1,1,1,2.6013924244,0.8550363412,0.0,0.0,0.0,0.0,1
110,' P',1,1,1,0.5574412338,0.1832220731,0.0,0.0,0.0,0.0,1
111,' C',1,1,1,0.5574412338,0.1832220731,0.0,0.0,0.0,0.0,1
111,' I',1,1,1,2.6013924244,0.8550363412,0.0,0.0,0.0,0.0,1
111,' P',1,1,1,0.5574412338,0.1832220731,0.0,0.0,0.0,0.0,1
112,' C',1,1,1,0.5574412338,0.1832220731,0.0,0.0,0.0,0.0,1
112,' I',1,1,1,2.6013924244,0.8550363412,0.0,0.0,0.0,0.0,1
112,' P',1,1,1,0.5574412338,0.1832220731,0.0,0.0,0.0,0.0,1
113,' C',1,1,1,1.6723237014,0.5496662194,0.0,0.0,0.0,0.0,1
113,' I',1,1,1,7.8041772731,2.5651090237,0.0,0.0,0.0,0.0,1
113,' P',1,1,1,1.6723237014,0.5496662194,0.0,0.0,0.0,0.0,1
114,' C',1,1,1,0.5574412338,0.1832220731,0.0,0.0,0.0,0.0,1
114,' I',1,1,1,2.6013924244,0.8550363412,0.0,0.0,0.0,0.0,1
114,' P',1,1,1,0.5574412338,0.1832220731,0.0,0.0,0.0,0.0,1
115,' C',1,1,1,0.5574412338,0.1832220731,0.0,0.0,0.0,0.0,1
115,' I',1,1,1,2.6013924244,0.8550363412,0.0,0.0,0.0,0.0,1
115,' P',1,1,1,0.5574412338,0.1832220731,0.0,0.0,0.0,0.0,1
116,' C',1,1,1,0.5574412338,0.1832220731,0.0,0.0,0.0,0.0,1
116,' I',1,1,1,2.6013924244,0.8550363412,0.0,0.0,0.0,0.0,1
116,' P',1,1,1,0.5574412338,0.1832220731,0.0,0.0,0.0,0.0,1
117,' C',1,1,1,1.6723237014,0.5496662194,0.0,0.0,0.0,0.0,1
117,' I',1,1,1,7.8041772731,2.5651090237,0.0,0.0,0.0,0.0,1
117,' P',1,1,1,1.6723237014,0.5496662194,0.0,0.0,0.0,0.0,1
118,' C',1,1,1,0.5574412338,0.1832220731,0.0,0.0,0.0,0.0,1
118,' I',1,1,1,2.6013924244,0.8550363412,0.0,0.0,0.0,0.0,1
118,' P',1,1,1,0.5574412338,0.1832220731,0.0,0.0,0.0,0.0,1
119,' C',1,1,1,0.5574412338,0.1832220731,0.0,0.0,0.0,0.0,1
119,' I',1,1,1,2.6013924244,0.8550363412,0.0,0.0,0.0,0.0,1
119,' P',1,1,1,0.5574412338,0.1832220731,0.0,0.0,0.0,0.0,1
120,' C',1,1,1,1.6723237014,0.5496662194,0.0,0.0,0.0,0.0,1
120,' I',1,1,1,7.8041772731,2.5651090237,0.0,0.0,0.0,0.0,1
120,' P',1,1,1,1.6723237014,0.5496662194,0.0,0.0,0.0,0.0,1
121,' C',1,1,1,1.6723237014,0.5496662194,0.0,0.0,0.0,0.0,1
121,' I',1,1,1,7.8041772731,2.5651090237,0.0,0.0,0.0,0.0,1
121,' P',1,1,1,1.6723237014,0.5496662194,0.0,0.0,0.0,0.0,1
122,' C',1,1,1,1.6723237014,0.5496662194,0.0,0.0,0.0,0.0,1
122,' I',1,1,1,7.8041772731,2.5651090237,0.0,0.0,0.0,0.0,1
122,' P',1,1,1,1.6723237014,0.5496662194,0.0,0.0,0.0,0.0,1
123,' C',1,1,1,0.5574412338,0.1832220731,0.0,0.0,0.0,0.0,1
123,' I',1,1,1,2.6013924244,0.8550363412,0.0,0.0,0.0,0.0,1
123,' P',1,1,1,0.5574412338,0.1832220731,0.0,0.0,0.0,0.0,1
124,' C',1,1,1,0.5574412338,0.1832220731,0.0,0.0,0.0,0.0,1
124,' I',1,1,1,2.6013924244,0.8550363412,0.0,0.0,0.0,0.0,1
124,' P',1,1,1,0.5574412338,0.1832220731,0.0,0.0,0.0,0.0,1
125,' C',1,1,1,0.5574412338,0.1832220731,0.0,0.0,0.0,0.0,1
125,' I',1,1,1,2.6013924244,0.8550363412,0.0,0.0,0.0,0.0,1
125,' P',1,1,1,0.5574412338,0.1832220731,0.0,0.0,0.0,0.0,1
126,' C',1,1,1,0.5574412338,0.1832220731,0.0,0.0,0.0,0.0,1
126,' I',1,1,1,2.6013924244,0.8550363412,0.0,0.0,0.0,0.0,1
126,' P',1,1,1,0.5574412338,0.1832220731,0.0,0.0,0.0,0.0,1
127,' C',1,1,1,0.5574412338,0.1832220731,0.0,0.0,0.0,0.0,1
127,' I',1,1,1,2.6013924244,0.8550363412,0.0,0.0,0.0,0.0,1
127,' P',1,1,1,0.5574412338,0.1832220731,0.0,0.0,0.0,0.0,1
128,' C',1,1,1,1.6723237014,0.5496662194,0.0,0.0,0.0,0.0,1
128,' I',1,1,1,7.8041772731,2.5651090237,0.0,0.0,0.0,0.0,1
...
0 / END OF LOAD DATA, BEGIN GENERATOR DATA
30,' 1',690.27399932,-255.68131588,1092.0,-1092.0,0.9719753618,0,100.0,0.0,0.0,0.0,0.0,1.0,1,100.0,1092.0,0.0,1,1.0,0,1.0,0,1.0,0,1.0
46,' 1',4.65100603,5.24826641,20.0,-20.0,0.9961503544,0,100.0,0.0,0.0,0.0,0.0,1.0,1,100.0,20.0,0.0,1,1.0,0,1.0,0,1.0,0,1.0
69,' 1',355.14893703,-67.22029796,1358.0,-1358.0,1.0027768351,0,100.0,0.0,0.0,0.0,0.0,1.0,1,100.0,1358.0,0.0,1,1.0,0,1.0,0,1.0,0,1.0
93,' 1',4.71256788,0.09184315,5.0,-5.0,1.0027767995,0,100.0,0.0,0.0,0.0,0.0,1.0,1,100.0,5.0,0.0,1,1.0,0,1.0,0,1.0,0,1.0
97,' 1',5.64446105,9.720736,11.0,-11.0,0.9809526302,0,100.0,0.0,0.0,0.0,0.0,1.0,1,100.0,11.0,0.0,1,1.0,0,1.0,0,1.0,0,1.0
273,' 1',8.24808955,-0.90216306,9.0,-9.0,1.0123912643,0,100.0,0.0,0.0,0.0,0.0,1.0,1,100.0,9.0,0.0,1,1.0,0,1.0,0,1.0,0,1.0
280,' 1',14.9203317,3.67616402,18.0,-18.0,1.0478470507,0,100.0,0.0,0.0,0.0,0.0,1.0,1,100.0,18.0,0.0,1,1.0,0,1.0,0,1.0,0,1.0
352,' 1',425.57894197,-375.28177938,454.0,-454.0,1.0123910364,0,100.0,0.0,0.0,0.0,0.0,1.0,1,100.0,454.0,0.0,1,1.0,0,1.0,0,1.0,0,1.0
361,' 1',14.39481337,-27.75995965,33.0,-33.0,1.0123912714,0,100.0,0.0,0.0,0.0,0.0,1.0,1,100.0,33.0,0.0,1,1.0,0,1.0,0,1.0,0,1.0
369,' 1',452.57058397,441.02087278,640.0,-640.0,1.0124004704,0,100.0,0.0,0.0,0.0,0.0,1.0,1,100.0,640.0,0.0,1,1.0,0,1.0,0,1.0,0,1.0
379,' 1',42.50042116,-20.49265431,193.0,-193.0,0.9809525846,0,100.0,0.0,0.0,0.0,0.0,1.0,1,100.0,193.0,0.0,1,1.0,0,1.0,0,1.0,0,1.0
389,' 1',324.23733668,445.97594191,600.0,-600.0,1.0123934182,0,100.0,0.0,0.0,0.0,0.0,1.0,1,100.0,600.0,0.0,1,1.0,0,1.0,0,1.0,0,1.0
407,' 1',94.2819379,1.21899236,400.0,-400.0,0.971987419,0,100.0,0.0,0.0,0.0,0.0,1.0,1,100.0,400.0,0.0,1,1.0,0,1.0,0,1.0,0,1.0
408,' 1',176.04932608,33.91536345,300.0,-300.0,1.0312816412,0,100.0,0.0,0.0,0.0,0.0,1.0,1,100.0,300.0,0.0,1,1.0,0,1.0,0,1.0,0,1.0
409,' 1',171.33564183,214.93781297,256.0,-256.0,1.0145082681,0,100.0,0.0,0.0,0.0,0.0,1.0,1,100.0,256.0,0.0,1,1.0,0,1.0,0,1.0,0,1.0
410,' 1',25.81918637,81.37001177,200.0,-200.0,1.0132035348,0,100.0,0.0,0.0,0.0,0.0,1.0,1,100.0,200.0,0.0,1,1.0,0,1.0,0,1.0,0,1.0
0 / END OF GENERATOR DATA, BEGIN BRANCH DATA
1,4,' 1',0.0365020007,0.2217726598,0.0822860313,227.0,272.4,326.88,0.0,0.0,0.0,0.0,1,1.0,0,1.0,0,1.0,0,1.0,0,1.0
2,3,' 1',0.008299945,0.0504273971,0.0187104686,227.0,272.4,326.88,0.0,0.0,0.0,0.0,1,1.0,0,1.0,0,1.0,0,1.0,0,1.0
2,8,' 1',0.006942542,0.0421803179,0.0156504908,227.0,272.4,326.88,0.0,0.0,0.0,0.0,1,1.0,0,1.0,0,1.0,0,1.0,0,1.0
2,8,'1A',0.006942542,0.0421803179,0.0156504908,227.0,272.4,326.88,0.0,0.0,0.0,0.0,1,1.0,0,1.0,0,1.0,0,1.0,0,1.0
2,25,' 1',0.0055727969,0.0338582537,0.0125626907,227.0,272.4,326.88,0.0,0.0,0.0,0.0,1,1.0,0,1.0,0,1.0,0,1.0,0,1.0
2,40,' 1',0.0043206717,0.0262508037,0.0097400394,227.0,272.4,326.88,0.0,0.0,0.0,0.0,1,1.0,0,1.0,0,1.0,0,1.0,0,1.0
2,40,'1A',0.0044347775,0.0269440681,0.0099972667,227.0,272.4,326.88,0.0,0.0,0.0,0.0,1,1.0,0,1.0,0,1.0,0,1.0,0,1.0
2,40,'1B',0.0044347775,0.0269440681,0.0099972667,227.0,272.4,326.88,0.0,0.0,0.0,0.0,1,1.0,0,1.0,0,1.0,0,1.0,0,1.0
2,49,' 1',0.010046956,0.0610415899,0.0226487349,227.0,272.4,326.88,0.0,0.0,0.0,0.0,1,1.0,0,1.0,0,1.0,0,1.0,0,1.0
3,36,' 1',0.0085378732,0.051872961,0.0192468273,227.0,272.4,326.88,0.0,0.0,0.0,0.0,1,1.0,0,1.0,0,1.0,0,1.0,0,1.0
4,5,' 1',0.0129466388,0.0786589905,0.0291854558,227.0,272.4,326.88,0.0,0.0,0.0,0.0,1,1.0,0,1.0,0,1.0,0,1.0,0,1.0
4,15,' 1',0.0141663657,0.0860696002,0.0319350718,227.0,272.4,326.88,0.0,0.0,0.0,0.0,1,1.0,0,1.0,0,1.0,0,1.0,0,1.0
5,6,' 1',0.0090684113,0.0550963138,0.020442813,227.0,272.4,326.88,0.0,0.0,0.0,0.0,1,1.0,0,1.0,0,1.0,0,1.0,0,1.0
5,15,' 1',0.0115174447,0.0699757355,0.0259636403,227.0,272.4,326.88,0.0,0.0,0.0,0.0,1,1.0,0,1.0,0,1.0,0,1.0,0,1.0
6,7,' 1',0.0065126072,0.0395681932,0.0146812938,227.0,272.4,326.88,0.0,0.0,0.0,0.0,1,1.0,0,1.0,0,1.0,0,1.0,0,1.0
7,12,' 1',0.0158646859,0.0963879658,0.0357635751,227.0,272.4,326.88,0.0,0.0,0.0,0.0,1,1.0,0,1.0,0,1.0,0,1.0,0,1.0
8,28,' 1',0.0044711104,0.0271648135,0.0100791716,227.0,272.4,326.88,0.0,0.0,0.0,0.0,1,1.0,0,1.0,0,1.0,0,1.0,0,1.0
8,44,' 1',0.0227951693,0.13849502,0.0513868823,227.0,272.4,326.88,0.0,0.0,0.0,0.0,1,1.0,0,1.0,0,1.0,0,1.0,0,1.0
9,8,' 1',0.0086627764,0.0526318261,0.019528395,227.0,272.4,326.88,0.0,0.0,0.0,0.0,1,1.0,0,1.0,0,1.0,0,1.0,0,1.0
9,8,'1A',0.0086361048,0.0524697796,0.0194682696,227.0,272.4,326.88,0.0,0.0,0.0,0.0,1,1.0,0,1.0,0,1.0,0,1.0,0,1.0
9,21,' 1',0.0047635568,0.0289416096,0.0107384301,227.0,272.4,326.88,0.0,0.0,0.0,0.0,1,1.0,0,1.0,0,1.0,0,1.0,0,1.0
10,9,' 1',0.0181638859,0.1103570548,0.0409466346,227.0,272.4,326.88,0.0,0.0,0.0,0.0,1,1.0,0,1.0,0,1.0,0,1.0,0,1.0
10,37,' 1',0.0072655544,0.0441428219,0.0163786538,227.0,272.4,326.88,0.0,0.0,0.0,0.0,1,1.0,0,1.0,0,1.0,0,1.0,0,1.0
11,14,' 1',0.0080700812,0.0490308297,0.0181922893,227.0,272.4,326.88,0.0,0.0,0.0,0.0,1,1.0,0,1.0,0,1.0,0,1.0,0,1.0
11,14,'1A',0.0080479987,0.0488966643,0.0181425089,227.0,272.4,326.88,0.0,0.0,0.0,0.0,1,1.0,0,1.0,0,1.0,0,1.0,0,1.0
12,16,' 1',0.0083615177,0.0508014901,0.0188492712,227.0,272.4,326.88,0.0,0.0,0.0,0.0,1,1.0,0,1.0,0,1.0,0,1.0,0,1.0
13,16,' 1',0.0215172187,0.1307306649,0.0485060133,227.0,272.4,326.88,0.0,0.0,0.0,0.0,1,1.0,0,1.0,0,1.0,0,1.0,0,1.0
14,13,' 1',0.0145311087,0.0882856438,0.0327573077,227.0,272.4,326.88,0.0,0.0,0.0,0.0,1,1.0,0,1.0,0,1.0,0,1.0,0,1.0
14,30,' 1',0.0302570295,0.1838305238,0.0682080661,227.0,272.4,326.88,0.0,0.0,0.0,0.0,1,1.0,0,1.0,0,1.0,0,1.0,0,1.0
14,34,' 1',0.0479096152,0.2910811073,0.1080020826,227.0,272.4,326.88,0.0,0.0,0.0,0.0,1,1.0,0,1.0,0,1.0,0,1.0,0,1.0
15,45,' 1',0.0124908185,0.0758895949,0.0281579054,227.0,272.4,326.88,0.0,0.0,0.0,0.0,1,1.0,0,1.0,0,1.0,0,1.0,0,1.0
16,1,' 1',0.0239117357,0.1452788647,0.0539039448,227.0,272.4,326.88,0.0,0.0,0.0,0.0,1,1.0,0,1.0,0,1.0,0,1.0,0,1.0
16,19,' 1',0.0000396811,0.0002410877,0.0000894526,227.0,272.4,326.88,0.0,0.0,0.0,0.0,1,1.0,0,1.0,0,1.0,0,1.0,0,1.0
16,45,' 1',0.0080603624,0.0489717815,0.0181703802,227.0,272.4,326.88,0.0,0.0,0.0,0.0,1,1.0,0,1.0,0,1.0,0,1.0,0,1.0
16,46,' 1',0.0042345135,0.0257273385,0.0095458141,227.0,272.4,326.88,0.0,0.0,0.0,0.0,1,1.0,0,1.0,0,1.0,0,1.0,0,1.0
17,8,' 1',0.0075449988,0.0458406228,0.0170086021,227.0,272.4,326.88,0.0,0.0,0.0,0.0,1,1.0,0,1.0,0,1.0,0,1.0,0,1.0
18,17,' 1',0.0184992192,0.1123944158,0.0417025725,227.0,272.4,326.88,0.0,0.0,0.0,0.0,1,1.0,0,1.0,0,1.0,0,1.0,0,1.0
19,18,' 1',0.0138045533,0.0838713616,0.0311194423,227.0,272.4,326.88,0.0,0.0,0.0,0.0,1,1.0,0,1.0,0,1.0,0,1.0,0,1.0
20,8,' 1',0.0069659597,0.0423225956,0.0157032811,227.0,272.4,326.88,0.0,0.0,0.0,0.0,1,1.0,0,1.0,0,1.0,0,1.0,0,1.0
20,47,' 1',0.0092612019,0.0562676387,0.0208774187,227.0,272.4,326.88,0.0,0.0,0.0,0.0,1,1.0,0,1.0,0,1.0,0,1.0,0,1.0
21,8,' 1',0.0102123016,0.0620461688,0.0230214716,227.0,272.4,326.88,0.0,0.0,0.0,0.0,1,1.0,0,1.0,0,1.0,0,1.0,0,1.0
22,8,' 1',0.0052289057,0.0317688976,0.0117874607,227.0,272.4,326.88,0.0,0.0,0.0,0.0,1,1.0,0,1.0,0,1.0,0,1.0,0,1.0
22,26,' 1',0.0013123328,0.0079732488,0.0029583764,227.0,272.4,326.88,0.0,0.0,0.0,0.0,1,1.0,0,1.0,0,1.0,0,1.0,0,1.0
23,22,' 1',0.0014714331,0.0089398837,0.0033170345,227.0,272.4,326.88,0.0,0.0,0.0,0.0,1,1.0,0,1.0,0,1.0,0,1.0,0,1.0
24,32,' 1',0.0022347215,0.0135773414,0.0050377064,227.0,272.4,326.88,0.0,0.0,0.0,0.0,1,1.0,0,1.0,0,1.0,0,1.0,0,1.0
25,22,' 1',0.0019131759,0.0116237497,0.0043128501,227.0,272.4,326.88,0.0,0.0,0.0,0.0,1,1.0,0,1.0,0,1.0,0,1.0,0,1.0
25,26,' 1',0.0033731781,0.0204941827,0.0076041157,227.0,272.4,326.88,0.0,0.0,0.0,0.0,1,1.0,0,1.0,0,1.0,0,1.0,0,1.0
26,20,' 1',0.0074581979,0.0453132528,0.0168129279,227.0,272.4,326.88,0.0,0.0,0.0,0.0,1,1.0,0,1.0,0,1.0,0,1.0,0,1.0
27,44,' 1',0.0079287048,0.0481718787,0.0178735861,227.0,272.4,326.88,0.0,0.0,0.0,0.0,1,1.0,0,1.0,0,1.0,0,1.0,0,1.0
28,29,' 1',0.0238645517,0.144992192,0.0537975784,227.0,272.4,326.88,0.0,0.0,0.0,0.0,1,1.0,0,1.0,0,1.0,0,1.0,0,1.0
29,27,' 1',0.0095251464,0.0578712679,0.0214724257,227.0,272.4,326.88,0.0,0.0,0.0,0.0,1,1.0,0,1.0,0,1.0,0,1.0,0,1.0
30,10,' 1',0.010225787,0.0621281011,0.0230518716,227.0,272.4,326.88,0.0,0.0,0.0,0.0,1,1.0,0,1.0,0,1.0,0,1.0,0,1.0
30,31,' 1',0.0241998849,0.147029553,0.0545535163,227.0,272.4,326.88,0.0,0.0,0.0,0.0,1,1.0,0,1.0,0,1.0,0,1.0,0,1.0
30,407,' 1',0.0,0.001,0.0,47.77,57.324,68.7888,0.0,0.0,0.0,0.0,1,1.0,0,1.0,0,1.0,0,1.0,0,1.0
31,48,' 1',0.0043034437,0.026146133,0.0097012027,227.0,272.4,326.88,0.0,0.0,0.0,0.0,1,1.0,0,1.0,0,1.0,0,1.0,0,1.0
32,33,' 1',0.0023473329,0.0142615271,0.0052915651,227.0,272.4,326.88,0.0,0.0,0.0,0.0,1,1.0,0,1.0,0,1.0,0,1.0,0,1.0
32,48,' 1',0.0042801965,0.0260048911,0.0096487966,227.0,272.4,326.88,0.0,0.0,0.0,0.0,1,1.0,0,1.0,0,1.0,0,1.0,0,1.0
33,44,' 1',0.008830443,0.0536505066,0.0199063639,227.0,272.4,326.88,0.0,0.0,0.0,0.0,1,1.0,0,1.0,0,1.0,0,1.0,0,1.0
35,12,' 1',0.0168058492,0.1021061257,0.0378852284,227.0,272.4,326.88,0.0,0.0,0.0,0.0,1,1.0,0,1.0,0,1.0,0,1.0,0,1.0
36,35,' 1',0.0044188555,0.026847332,0.009961374,227.0,272.4,326.88,0.0,0.0,0.0,0.0,1,1.0,0,1.0,0,1.0,0,1.0,0,1.0
37,38,' 1',0.0062595545,0.0380307389,0.0141108402,227.0,272.4,326.88,0.0,0.0,0.0,0.0,1,1.0,0,1.0,0,1.0,0,1.0,0,1.0
37,38,'1A',0.0079376186,0.0482260355,0.0178936803,227.0,272.4,326.88,0.0,0.0,0.0,0.0,1,1.0,0,1.0,0,1.0,0,1.0,0,1.0
37,43,' 1',0.0022514047,0.0136787026,0.0050753152,227.0,272.4,326.88,0.0,0.0,0.0,0.0,1,1.0,0,1.0,0,1.0,0,1.0,0,1.0
37,50,' 1',0.0027329662,0.0166044922,0.0061608936,227.0,272.4,326.88,0.0,0.0,0.0,0.0,1,1.0,0,1.0,0,1.0,0,1.0,0,1.0
38,21,' 1',0.011700818,0.0710898438,0.0263770165,227.0,272.4,326.88,0.0,0.0,0.0,0.0,1,1.0,0,1.0,0,1.0,0,1.0,0,1.0
39,9,' 1',0.0267148845,0.1623097606,0.0602230503,227.0,272.4,326.88,0.0,0.0,0.0,0.0,1,1.0,0,1.0,0,1.0,0,1.0,0,1.0
40,25,' 1',0.0039980459,0.0242906484,0.0090127478,227.0,272.4,326.88,0.0,0.0,0.0,0.0,1,1.0,0,1.0,0,1.0,0,1.0,0,1.0
41,42,' 1',0.0073566191,0.0446960974,0.01658394,227.0,272.4,326.88,0.0,0.0,0.0,0.0,1,1.0,0,1.0,0,1.0,0,1.0,0,1.0
41,49,' 1',0.0009049032,0.0054978572,0.0020399126,227.0,272.4,326.88,0.0,0.0,0.0,0.0,1,1.0,0,1.0,0,1.0,0,1.0,0,1.0
42,38,' 1',0.0036470445,0.0221580938,0.0082214895,227.0,272.4,326.88,0.0,0.0,0.0,0.0,1,1.0,0,1.0,0,1.0,0,1.0,0,1.0
43,10,' 1',0.0039904743,0.0242446463,0.0089956793,227.0,272.4,326.88,0.0,0.0,0.0,0.0,1,1.0,0,1.0,0,1.0,0,1.0,0,1.0
43,50,' 1',0.0001986914,0.0012071754,0.0004479077,227.0,272.4,326.88,0.0,0.0,0.0,0.0,1,1.0,0,1.0,0,1.0,0,1.0,0,1.0
51,52,' 1',0.0051127007,0.0397256847,0.2037708609,454.0,544.8,653.76,0.0,0.0,0.0,0.0,1,1.0,0,1.0,0,1.0,0,1.0,0,1.0
51,53,' 1',0.0038199758,0.0296812119,0.1522482533,454.0,544.8,653.76,0.0,0.0,0.0,0.0,1,1.0,0,1.0,0,1.0,0,1.0,0,1.0
52,57,' 1',0.0078967222,0.0613575312,0.3147303078,454.0,544.8,653.76,0.0,0.0,0.0,0.0,1,1.0,0,1.0,0,1.0,0,1.0,0,1.0
52,57,'1A',0.0078967222,0.0613575312,0.3147303078,454.0,544.8,653.76,0.0,0.0,0.0,0.0,1,1.0,0,1.0,0,1.0,0,1.0,0,1.0
54,51,' 1',0.0023613732,0.0183478694,0.0941144548,454.0,544.8,653.76,0.0,0.0,0.0,0.0,1,1.0,0,1.0,0,1.0,0,1.0,0,1.0
55,53,' 1',0.0050489502,0.0392303434,0.2012300331,454.0,544.8,653.76,0.0,0.0,0.0,0.0,1,1.0,0,1.0,0,1.0,0,1.0,0,1.0
57,58,' 1',0.0071648308,0.0556707349,0.285560178,454.0,544.8,653.76,0.0,0.0,0.0,0.0,1,1.0,0,1.0,0,1.0,0,1.0,0,1.0
57,59,' 1',0.0079566818,0.0618234178,0.3171200492,454.0,544.8,653.76,0.0,0.0,0.0,0.0,1,1.0,0,1.0,0,1.0,0,1.0,0,1.0
58,54,' 1',0.0060254918,0.0468180715,0.2401508952,454.0,544.8,653.76,0.0,0.0,0.0,0.0,1,1.0,0,1.0,0,1.0,0,1.0,0,1.0
61,51,' 1',0.0030417949,0.0236347466,0.1212332196,454.0,544.8,653.76,0.0,0.0,0.0,0.0,1,1.0,0,1.0,0,1.0,0,1.0,0,1.0
61,53,' 1',0.0068725267,0.0533995327,0.2739101629,454.0,544.8,653.76,0.0,0.0,0.0,0.0,1,1.0,0,1.0,0,1.0,0,1.0,0,1.0
61,60,' 1',0.00419075,0.0325621275,0.1670257618,454.0,544.8,653.76,0.0,0.0,0.0,0.0,1,1.0,0,1.0,0,1.0,0,1.0,0,1.0
63,70,' 1',0.0,0.000001,0.0,47.77,57.324,68.7888,0.0,0.0,0.0,0.0,1,1.0,0,1.0,0,1.0,0,1.0,0,1.0
63,98,' 1',0.0,0.000001,0.0,47.77,57.324,68.7888,0.0,0.0,0.0,0.0,1,1.0,0,1.0,0,1.0,0,1.0,0,1.0
64,100,' 1',0.3686170311,0.000001,0.0,47.77,57.324,68.7888,0.0,0.0,0.0,0.0,1,1.0,0,1.0,0,1.0,0,1.0,0,1.0
64,101,' 1',0.0,0.000001,0.0,47.77,57.324,68.7888,0.0,0.0,0.0,0.0,1,1.0,0,1.0,0,1.0,0,1.0,0,1.0
64,123,' 1',0.0916580949,0.000001,0.0,47.77,57.324,68.7888,0.0,0.0,0.0,0.0,1,1.0,0,1.0,0,1.0,0,1.0,0,1.0
64,159,' 1',0.0,0.000001,0.0,47.77,57.324,68.7888,0.0,0.0,0.0,0.0,1,1.0,0,1.0,0,1.0,0,1.0,0,1.0
64,187,' 1',0.0,0.000001,0.0,47.77,57.324,68.7888,0.0,0.0,0.0,0.0,1,1.0,0,1.0,0,1.0,0,1.0,0,1.0
64,251,' 1',0.0,0.000001,0.0,47.77,57.324,68.7888,0.0,0.0,0.0,0.0,1,1.0,0,1.0,0,1.0,0,1.0,0,1.0
65,87,' 1',0.0,0.000001,0.0,47.77,57.324,68.7888,0.0,0.0,0.0,0.0,1,1.0,0,1.0,0,1.0,0,1.0,0,1.0
65,114,' 1',0.0,0.000001,0.0,47.77,57.324,68.7888,0.0,0.0,0.0,0.0,1,1.0,0,1.0,0,1.0,0,1.0,0,1.0
65,115,' 1',0.0,0.000001,0.0,47.77,57.324,68.7888,0.0,0.0,0.0,0.0,1,1.0,0,1.0,0,1.0,0,1.0,0,1.0
65,116,' 1',0.0,0.000001,0.0,47.77,57.324,68.7888,0.0,0.0,0.0,0.0,1,1.0,0,1.0,0,1.0,0,1.0,0,1.0
65,117,' 1',0.0,0.000001,0.0,47.77,57.324,68.7888,0.0,0.0,0.0,0.0,1,1.0,0,1.0,0,1.0,0,1.0,0,1.0
65,118,' 1',0.0,0.000001,0.0,47.77,57.324,68.7888,0.0,0.0,0.0,0.0,1,1.0,0,1.0,0,1.0,0,1.0,0,1.0
65,147,' 1',0.0,0.000001,0.0,47.77,57.324,68.7888,0.0,0.0,0.0,0.0,1,1.0,0,1.0,0,1.0,0,1.0,0,1.0
65,157,' 1',0.0,0.000001,0.0,47.77,57.324,68.7888,0.0,0.0,0.0,0.0,1,1.0,0,1.0,0,1.0,0,1.0,0,1.0
65,158,' 1',0.0,0.000001,0.0,47.77,57.324,68.7888,0.0,0.0,0.0,0.0,1,1.0,0,1.0,0,1.0,0,1.0,0,1.0
65,160,' 1',0.0,0.000001,0.0,47.77,57.324,68.7888,0.0,0.0,0.0,0.0,1,1.0,0,1.0,0,1.0,0,1.0,0,1.0
65,192,' 1',0.0,0.000001,0.0,47.77,57.324,68.7888,0.0,0.0,0.0,0.0,1,1.0,0,1.0,0,1.0,0,1.0,0,1.0
65,201,' 1',0.0,0.000001,0.0,47.77,57.324,68.7888,0.0,0.0,0.0,0.0,1,1.0,0,1.0,0,1.0,0,1.0,0,1.0
65,206,' 1',0.0,0.000001,0.0,47.77,57.324,68.7888,0.0,0.0,0.0,0.0,1,1.0,0,1.0,0,1.0,0,1.0,0,1.0
65,211,' 1',0.0,0.000001,0.0,47.77,57.324,68.7888,0.0,0.0,0.0,0.0,1,1.0,0,1.0,0,1.0,0,1.0,0,1.0
65,224,' 1',0.0,0.000001,0.0,47.77,57.324,68.7888,0.0,0.0,0.0,0.0,1,1.0,0,1.0,0,1.0,0,1.0,0,1.0
65,271,' 1',0.0,0.000001,0.0,47.77,57.324,68.7888,0.0,0.0,0.0,0.0,1,1.0,0,1.0,0,1.0,0,1.0,0,1.0
65,273,' 1',0.0,0.000001,0.0,47.77,57.324,68.7888,0.0,0.0,0.0,0.0,1,1.0,0,1.0,0,1.0,0,1.0,0,1.0
65,279,' 1',0.0,0.000001,0.0,47.77,57.324,68.7888,0.0,0.0,0.0,0.0,1,1.0,0,1.0,0,1.0,0,1.0,0,1.0
65,292,' 1',0.0,0.000001,0.0,47.77,57.324,68.7888,0.0,0.0,0.0,0.0,1,1.0,0,1.0,0,1.0,0,1.0,0,1.0
65,295,' 1',0.0,0.000001,0.0,47.77,57.324,68.7888,0.0,0.0,0.0,0.0,1,1.0,0,1.0,0,1.0,0,1.0,0,1.0
65,297,' 1',0.0,0.000001,0.0,47.77,57.324,68.7888,0.0,0.0,0.0,0.0,1,1.0,0,1.0,0,1.0,0,1.0,0,1.0
65,298,' 1',0.0,0.000001,0.0,47.77,57.324,68.7888,0.0,0.0,0.0,0.0,1,1.0,0,1.0,0,1.0,0,1.0,0,1.0
65,336,' 1',0.0,0.000001,0.0,47.77,57.324,68.7888,0.0,0.0,0.0,0.0,1,1.0,0,1.0,0,1.0,0,1.0,0,1.0
65,341,' 1',0.0,0.000001,0.0,47.77,57.324,68.7888,0.0,0.0,0.0,0.0,1,1.0,0,1.0,0,1.0,0,1.0,0,1.0
65,350,' 1',0.0,0.000001,0.0,47.77,57.324,68.7888,0.0,0.0,0.0,0.0,1,1.0,0,1.0,0,1.0,0,1.0,0,1.0
66,164,' 1',0.0,0.000001,0.0,47.77,57.324,68.7888,0.0,0.0,0.0,0.0,1,1.0,0,1.0,0,1.0,0,1.0,0,1.0
67,118,' 1',0.0,0.000001,0.0,47.77,57.324,68.7888,0.0,0.0,0.0,0.0,1,1.0,0,1.0,0,1.0,0,1.0,0,1.0
68,69,' 1',0.0,0.000001,0.0,47.77,57.324,68.7888,0.0,0.0,0.0,0.0,1,1.0,0,1.0,0,1.0,0,1.0,0,1.0
68,93,' 1',0.0,0.000001,0.0,47.77,57.324,68.7888,0.0,0.0,0.0,0.0,1,1.0,0,1.0,0,1.0,0,1.0,0,1.0
68,333,' 1',0.0,0.000001,0.0,47.77,57.324,68.7888,0.0,0.0,0.0,0.0,1,1.0,0,1.0,0,1.0,0,1.0,0,1.0
69,408,' 1',0.0060254918,0.0468180715,0.2401508952,454.0,544.8,653.76,0.0,0.0,0.0,0.0,1,1.0,0,1.0,0,1.0,0,1.0,0,1.0
70,98,' 1',0.0,0.000001,0.0,47.77,57.324,68.7888,0.0,0.0,0.0,0.0,1,1.0,0,1.0,0,1.0,0,1.0,0,1.0
71,129,' 1',0.0,0.000001,0.0,47.77,57.324,68.7888,0.0,0.0,0.0,0.0,1,1.0,0,1.0,0,1.0,0,1.0,0,1.0
72,178,' 1',0.0,0.000001,0.0,47.77,57.324,68.7888,0.0,0.0,0.0,0.0,1,1.0,0,1.0,0,1.0,0,1.0,0,1.0
72,184,' 1',0.0,0.000001,0.0,47.77,57.324,68.7888,0.0,0.0,0.0,0.0,1,1.0,0,1.0,0,1.0,0,1.0,0,1.0
73,138,' 1',0.0,0.000001,0.0,47.77,57.324,68.7888,0.0,0.0,0.0,0.0,1,1.0,0,1.0,0,1.0,0,1.0,0,1.0
73,193,' 1',0.0,0.000001,0.0,47.77,57.324,68.7888,0.0,0.0,0.0,0.0,1,1.0,0,1.0,0,1.0,0,1.0,0,1.0
73,200,' 1',0.0,0.000001,0.0,47.77,57.324,68.7888,0.0,0.0,0.0,0.0,1,1.0,0,1.0,0,1.0,0,1.0,0,1.0
73,250,' 1',0.0,0.000001,0.0,47.77,57.324,68.7888,0.0,0.0,0.0,0.0,1,1.0,0,1.0,0,1.0,0,1.0,0,1.0
77,171,' 1',0.0,0.000001,0.0,47.77,57.324,68.7888,0.0,0.0,0.0,0.0,1,1.0,0,1.0,0,1.0,0,1.0,0,1.0
77,204,' 1',0.0,0.000001,0.0,47.77,57.324,68.7888,0.0,0.0,0.0,0.0,1,1.0,0,1.0,0,1.0,0,1.0,0,1.0
77,217,' 1',0.0,0.000001,0.0,47.77,57.324,68.7888,0.0,0.0,0.0,0.0,1,1.0,0,1.0,0,1.0,0,1.0,0,1.0
77,218,' 1',0.0,0.000001,0.0,47.77,57.324,68.7888,0.0,0.0,0.0,0.0,1,1.0,0,1.0,0,1.0,0,1.0,0,1.0
77,238,' 1',0.0,0.000001,0.0,47.77,57.324,68.7888,0.0,0.0,0.0,0.0,1,1.0,0,1.0,0,1.0,0,1.0,0,1.0
77,239,' 1',0.0,0.000001,0.0,47.77,57.324,68.7888,0.0,0.0,0.0,0.0,1,1.0,0,1.0,0,1.0,0,1.0,0,1.0
77,240,' 1',0.0,0.000001,0.0,47.77,57.324,68.7888,0.0,0.0,0.0,0.0,1,1.0,0,1.0,0,1.0,0,1.0,0,1.0
79,68,' 1',0.0,0.000001,0.0,47.77,57.324,68.7888,0.0,0.0,0.0,0.0,1,1.0,0,1.0,0,1.0,0,1.0,0,1.0
79,69,' 1',0.000001,0.000001,0.0,47.77,57.324,68.7888,0.0,0.0,0.0,0.0,1,1.0,0,1.0,0,1.0,0,1.0,0,1.0
79,93,' 1',0.0,0.000001,0.0,47.77,57.324,68.7888,0.0,0.0,0.0,0.0,1,1.0,0,1.0,0,1.0,0,1.0,0,1.0
79,333,' 1',0.0,0.000001,0.0,47.77,57.324,68.7888,0.0,0.0,0.0,0.0,1,1.0,0,1.0,0,1.0,0,1.0,0,1.0
80,119,' 1',0.0,0.000001,0.0,47.77,57.324,68.7888,0.0,0.0,0.0,0.0,1,1.0,0,1.0,0,1.0,0,1.0,0,1.0
80,120,' 1',0.0,0.000001,0.0,47.77,57.324,68.7888,0.0,0.0,0.0,0.0,1,1.0,0,1.0,0,1.0,0,1.0,0,1.0
80,191,' 1',0.0,0.000001,0.0,47.77,57.324,68.7888,0.0,0.0,0.0,0.0,1,1.0,0,1.0,0,1.0,0,1.0,0,1.0
80,221,' 1',0.0,0.000001,0.0,47.77,57.324,68.7888,0.0,0.0,0.0,0.0,1,1.0,0,1.0,0,1.0,0,1.0,0,1.0
81,122,' 1',0.0,0.000001,0.0,47.77,57.324,68.7888,0.0,0.0,0.0,0.0,1,1.0,0,1.0,0,1.0,0,1.0,0,1.0
81,125,' 1',0.0,0.000001,0.0,47.77,57.324,68.7888,0.0,0.0,0.0,0.0,1,1.0,0,1.0,0,1.0,0,1.0,0,1.0
81,127,' 1',0.0,0.000001,0.0,47.77,57.324,68.7888,0.0,0.0,0.0,0.0,1,1.0,0,1.0,0,1.0,0,1.0,0,1.0
81,131,' 1',0.0,0.000001,0.0,47.77,57.324,68.7888,0.0,0.0,0.0,0.0,1,1.0,0,1.0,0,1.0,0,1.0,0,1.0
81,160,' 1',0.0,0.000001,0.0,47.77,57.324,68.7888,0.0,0.0,0.0,0.0,1,1.0,0,1.0,0,1.0,0,1.0,0,1.0
81,170,' 1',0.0,0.000001,0.0,47.77,57.324,68.7888,0.0,0.0,0.0,0.0,1,1.0,0,1.0,0,1.0,0,1.0,0,1.0
82,91,' 1',0.0,0.000001,0.0,47.77,57.324,68.7888,0.0,0.0,0.0,0.0,1,1.0,0,1.0,0,1.0,0,1.0,0,1.0
83,64,' 1',0.0,0.000001,0.0,47.77,57.324,68.7888,0.0,0.0,0.0,0.0,1,1.0,0,1.0,0,1.0,0,1.0,0,1.0
83,100,' 1',0.0,0.000001,0.0,47.77,57.324,68.7888,0.0,0.0,0.0,0.0,1,1.0,0,1.0,0,1.0,0,1.0,0,1.0
83,101,' 1',0.0,0.000001,0.0,47.77,57.324,68.7888,0.0,0.0,0.0,0.0,1,1.0,0,1.0,0,1.0,0,1.0,0,1.0
83,123,' 1',0.0,0.000001,0.0,47.77,57.324,68.7888,0.0,0.0,0.0,0.0,1,1.0,0,1.0,0,1.0,0,1.0,0,1.0
83,159,' 1',0.0,0.000001,0.0,47.77,57.324,68.7888,0.0,0.0,0.0,0.0,1,1.0,0,1.0,0,1.0,0,1.0,0,1.0
83,187,' 1',0.0,0.000001,0.0,47.77,57.324,68.7888,0.0,0.0,0.0,0.0,1,1.0,0,1.0,0,1.0,0,1.0,0,1.0
83,251,' 1',0.0,0.000001,0.0,47.77,57.324,68.7888,0.0,0.0,0.0,0.0,1,1.0,0,1.0,0,1.0,0,1.0,0,1.0
83,267,' 1',0.0,0.000001,0.0,47.77,57.324,68.7888,0.0,0.0,0.0,0.0,1,1.0,0,1.0,0,1.0,0,1.0,0,1.0
83,272,' 1',0.7135032916,0.000001,0.0,47.77,57.324,68.7888,0.0,0.0,0.0,0.0,1,1.0,0,1.0,0,1.0,0,1.0,0,1.0
84,71,' 1',0.0,0.000001,0.0,47.77,57.324,68.7888,0.0,0.0,0.0,0.0,1,1.0,0,1.0,0,1.0,0,1.0,0,1.0
84,129,' 1',0.0,0.000001,0.0,47.77,57.324,68.7888,0.0,0.0,0.0,0.0,1,1.0,0,1.0,0,1.0,0,1.0,0,1.0
84,133,' 1',0.0,0.000001,0.0,47.77,57.324,68.7888,0.0,0.0,0.0,0.0,1,1.0,0,1.0,0,1.0,0,1.0,0,1.0
84,146,' 1',0.0,0.000001,0.0,47.77,57.324,68.7888,0.0,0.0,0.0,0.0,1,1.0,0,1.0,0,1.0,0,1.0,0,1.0
84,148,' 1',0.0,0.000001,0.0,47.77,57.324,68.7888,0.0,0.0,0.0,0.0,1,1.0,0,1.0,0,1.0,0,1.0,0,1.0
84,149,' 1',0.0,0.000001,0.0,47.77,57.324,68.7888,0.0,0.0,0.0,0.0,1,1.0,0,1.0,0,1.0,0,1.0,0,1.0
84,154,' 1',0.0,0.000001,0.0,47.77,57.324,68.7888,0.0,0.0,0.0,0.0,1,1.0,0,1.0,0,1.0,0,1.0,0,1.0
85,71,' 1',0.0,0.000001,0.0,47.77,57.324,68.7888,0.0,0.0,0.0,0.0,1,1.0,0,1.0,0,1.0,0,1.0,0,1.0
85,84,' 1',0.0,0.000001,0.0,47.77,57.324,68.7888,0.0,0.0,0.0,0.0,1,1.0,0,1.0,0,1.0,0,1.0,0,1.0
85,129,' 1',0.0,0.000001,0.0,47.77,57.324,68.7888,0.0,0.0,0.0,0.0,1,1.0,0,1.0,0,1.0,0,1.0,0,1.0
85,133,' 1',0.0,0.000001,0.0,47.77,57.324,68.7888,0.0,0.0,0.0,0.0,1,1.0,0,1.0,0,1.0,0,1.0,0,1.0
85,146,' 1',0.0,0.000001,0.0,47.77,57.324,68.7888,0.0,0.0,0.0,0.0,1,1.0,0,1.0,0,1.0,0,1.0,0,1.0
85,148,' 1',0.6911238265,0.000001,0.0,47.77,57.324,68.7888,0.0,0.0,0.0,0.0,1,1.0,0,1.0,0,1.0,0,1.0,0,1.0
85,149,' 1',0.0,0.000001,0.0,47.77,57.324,68.7888,0.0,0.0,0.0,0.0,1,1.0,0,1.0,0,1.0,0,1.0,0,1.0
85,154,' 1',0.0,0.000001,0.0,47.77,57.324,68.7888,0.0,0.0,0.0,0.0,1,1.0,0,1.0,0,1.0,0,1.0,0,1.0
86,213,' 1',0.0000008333,0.000001,0.0,47.77,57.324,68.7888,0.0,0.0,0.0,0.0,1,1.0,0,1.0,0,1.0,0,1.0,0,1.0
87,114,' 1',0.0,0.000001,0.0,47.77,57.324,68.7888,0.0,0.0,0.0,0.0,1,1.0,0,1.0,0,1.0,0,1.0,0,1.0
87,115,' 1',0.0,0.000001,0.0,47.77,57.324,68.7888,0.0,0.0,0.0,0.0,1,1.0,0,1.0,0,1.0,0,1.0,0,1.0
87,116,' 1',0.0,0.000001,0.0,47.77,57.324,68.7888,0.0,0.0,0.0,0.0,1,1.0,0,1.0,0,1.0,0,1.0,0,1.0
87,117,' 1',0.0,0.000001,0.0,47.77,57.324,68.7888,0.0,0.0,0.0,0.0,1,1.0,0,1.0,0,1.0,0,1.0,0,1.0
87,118,' 1',0.0,0.000001,0.0,47.77,57.324,68.7888,0.0,0.0,0.0,0.0,1,1.0,0,1.0,0,1.0,0,1.0,0,1.0
88,214,' 1',0.0,0.000001,0.0,47.77,57.324,68.7888,0.0,0.0,0.0,0.0,1,1.0,0,1.0,0,1.0,0,1.0,0,1.0
89,65,' 1',0.0,0.000001,0.0,47.77,57.324,68.7888,0.0,0.0,0.0,0.0,1,1.0,0,1.0,0,1.0,0,1.0,0,1.0
89,87,' 1',0.0,0.000001,0.0,47.77,57.324,68.7888,0.0,0.0,0.0,0.0,1,1.0,0,1.0,0,1.0,0,1.0,0,1.0
89,114,' 1',0.0,0.000001,0.0,47.77,57.324,68.7888,0.0,0.0,0.0,0.0,1,1.0,0,1.0,0,1.0,0,1.0,0,1.0
89,115,' 1',0.0,0.000001,0.0,47.77,57.324,68.7888,0.0,0.0,0.0,0.0,1,1.0,0,1.0,0,1.0,0,1.0,0,1.0
89,116,' 1',0.0,0.000001,0.0,47.77,57.324,68.7888,0.0,0.0,0.0,0.0,1,1.0,0,1.0,0,1.0,0,1.0,0,1.0
89,117,' 1',0.0,0.000001,0.0,47.77,57.324,68.7888,0.0,0.0,0.0,0.0,1,1.0,0,1.0,0,1.0,0,1.0,0,1.0
89,118,' 1',0.0,0.000001,0.0,47.77,57.324,68.7888,0.0,0.0,0.0,0.0,1,1.0,0,1.0,0,1.0,0,1.0,0,1.0
89,147,' 1',0.0,0.000001,0.0,47.77,57.324,68.7888,0.0,0.0,0.0,0.0,1,1.0,0,1.0,0,1.0,0,1.0,0,1.0
89,157,' 1',0.0,0.000001,0.0,47.77,57.324,68.7888,0.0,0.0,0.0,0.0,1,1.0,0,1.0,0,1.0,0,1.0,0,1.0
89,158,' 1',0.0,0.000001,0.0,47.77,57.324,68.7888,0.0,0.0,0.0,0.0,1,1.0,0,1.0,0,1.0,0,1.0,0,1.0
89,160,' 1',0.0,0.000001,0.0,47.77,57.324,68.7888,0.0,0.0,0.0,0.0,1,1.0,0,1.0,0,1.0,0,1.0,0,1.0
89,192,' 1',0.0,0.000001,0.0,47.77,57.324,68.7888,0.0,0.0,0.0,0.0,1,1.0,0,1.0,0,1.0,0,1.0,0,1.0
89,201,' 1',0.0,0.000001,0.0,47.77,57.324,68.7888,0.0,0.0,0.0,0.0,1,1.0,0,1.0,0,1.0,0,1.0,0,1.0
89,206,' 1',0.0,0.000001,0.0,47.77,57.324,68.7888,0.0,0.0,0.0,0.0,1,1.0,0,1.0,0,1.0,0,1.0,0,1.0
89,211,' 1',0.0,0.000001,0.0,47.77,57.324,68.7888,0.0,0.0,0.0,0.0,1,1.0,0,1.0,0,1.0,0,1.0,0,1.0
89,224,' 1',0.0,0.000001,0.0,47.77,57.324,68.7888,0.0,0.0,0.0,0.0,1,1.0,0,1.0,0,1.0,0,1.0,0,1.0
...
0 / END OF BRANCH DATA, BEGIN TRANSFORMER DATA
1,69,0,' 1',1,1,1,0.0,0.0,2,'            ',1,0,1.0,0,1.0,0,1.0,0,1.0
0.0061,0.04956,100.0,
1.0,0.0,0.0,350.0,420.0,504.0,0,1,1.5,0.5,1.5,1.5,33,0,0.0,0.0
1.0,0.0
2,65,0,' 1',1,1,1,0.0,0.0,2,'            ',1,0,1.0,0,1.0,0,1.0,0,1.0
0.0061,0.04956,100.0,
1.0,0.0,0.0,350.0,420.0,504.0,0,1,1.5,0.5,1.5,1.5,33,0,0.0,0.0
1.0,0.0
3,90,0,' 1',1,1,1,0.0,0.0,2,'            ',1,0,1.0,0,1.0,0,1.0,0,1.0
0.0061,0.04956,100.0,
1.0,0.0,0.0,350.0,420.0,504.0,0,1,1.5,0.5,1.5,1.5,33,0,0.0,0.0
1.0,0.0
5,83,0,' 1',1,1,1,0.0,0.0,2,'            ',1,0,1.0,0,1.0,0,1.0,0,1.0
0.0061,0.04956,100.0,
1.0,0.0,0.0,350.0,420.0,504.0,0,1,1.5,0.5,1.5,1.5,33,0,0.0,0.0
1.0,0.0
6,89,0,' 1',1,1,1,0.0,0.0,2,'            ',1,0,1.0,0,1.0,0,1.0,0,1.0
0.0061,0.04956,100.0,
1.0,0.0,0.0,350.0,420.0,504.0,0,1,1.5,0.5,1.5,1.5,33,0,0.0,0.0
1.0,0.0
7,88,0,' 1',1,1,1,0.0,0.0,2,'            ',1,0,1.0,0,1.0,0,1.0,0,1.0
0.0061,0.04956,100.0,
1.0,0.0,0.0,350.0,420.0,504.0,0,1,1.5,0.5,1.5,1.5,33,0,0.0,0.0
1.0,0.0
8,76,0,' 1',1,1,1,0.0,0.0,2,'            ',1,0,1.0,0,1.0,0,1.0,0,1.0
0.0061,0.04956,100.0,
1.0,0.0,0.0,350.0,420.0,504.0,0,1,1.5,0.5,1.5,1.5,33,0,0.0,0.0
1.0,0.0
9,62,0,' 1',1,1,1,0.0,0.0,2,'            ',1,0,1.0,0,1.0,0,1.0,0,1.0
0.0061,0.04956,100.0,
1.0,0.0,0.0,350.0,420.0,504.0,0,1,1.5,0.5,1.5,1.5,33,0,0.0,0.0
1.0,0.0
11,72,0,' 1',1,1,1,0.0,0.0,2,'            ',1,0,1.0,0,1.0,0,1.0,0,1.0
0.0061,0.04956,100.0,
1.0,0.0,0.0,350.0,420.0,504.0,0,1,1.5,0.5,1.5,1.5,33,0,0.0,0.0
1.0,0.0
12,64,0,' 1',1,1,1,0.0,0.0,2,'            ',1,0,1.0,0,1.0,0,1.0,0,1.0
0.0061,0.04956,100.0,
1.0,0.0,0.0,350.0,420.0,504.0,0,1,1.5,0.5,1.5,1.5,33,0,0.0,0.0
1.0,0.0
13,86,0,' 1',1,1,1,0.0,0.0,2,'            ',1,0,1.0,0,1.0,0,1.0,0,1.0
0.0061,0.04956,100.0,
1.0,0.0,0.0,350.0,420.0,504.0,0,1,1.5,0.5,1.5,1.5,33,0,0.0,0.0
1.0,0.0
15,91,0,' 1',1,1,1,0.0,0.0,2,'            ',1,0,1.0,0,1.0,0,1.0,0,1.0
0.0061,0.04956,100.0,
1.0,0.0,0.0,350.0,420.0,504.0,0,1,1.5,0.5,1.5,1.5,33,0,0.0,0.0
1.0,0.0
16,71,0,' 1',1,1,1,0.0,0.0,2,'            ',1,0,1.0,0,1.0,0,1.0,0,1.0
0.0061,0.04956,100.0,
1.0,0.0,0.0,350.0,420.0,504.0,0,1,1.5,0.5,1.5,1.5,33,0,0.0,0.0
1.0,0.0
17,94,0,' 1',1,1,1,0.0,0.0,2,'            ',1,0,1.0,0,1.0,0,1.0,0,1.0
0.0061,0.04956,100.0,
1.0,0.0,0.0,350.0,420.0,504.0,0,1,1.5,0.5,1.5,1.5,33,0,0.0,0.0
1.0,0.0
19,71,0,' 1',1,1,1,0.0,0.0,2,'            ',1,0,1.0,0,1.0,0,1.0,0,1.0
0.0061,0.04956,100.0,
1.0,0.0,0.0,350.0,420.0,504.0,0,1,1.5,0.5,1.5,1.5,33,0,0.0,0.0
1.0,0.0
20,81,0,' 1',1,1,1,0.0,0.0,2,'            ',1,0,1.0,0,1.0,0,1.0,0,1.0
0.0061,0.04956,100.0,
1.0,0.0,0.0,350.0,420.0,504.0,0,1,1.5,0.5,1.5,1.5,33,0,0.0,0.0
1.0,0.0
21,93,0,' 1',1,1,1,0.0,0.0,2,'            ',1,0,1.0,0,1.0,0,1.0,0,1.0
0.0061,0.04956,100.0,
1.0,0.0,0.0,350.0,420.0,504.0,0,1,1.5,0.5,1.5,1.5,33,0,0.0,0.0
1.0,0.0
22,82,0,' 1',1,1,1,0.0,0.0,2,'            ',1,0,1.0,0,1.0,0,1.0,0,1.0
0.0061,0.04956,100.0,
1.0,0.0,0.0,350.0,420.0,504.0,0,1,1.5,0.5,1.5,1.5,33,0,0.0,0.0
1.0,0.0
24,87,0,' 1',1,1,1,0.0,0.0,2,'            ',1,0,1.0,0,1.0,0,1.0,0,1.0
0.0061,0.04956,100.0,
1.0,0.0,0.0,350.0,420.0,504.0,0,1,1.5,0.5,1.5,1.5,33,0,0.0,0.0
1.0,0.0
25,82,0,' 1',1,1,1,0.0,0.0,2,'            ',1,0,1.0,0,1.0,0,1.0,0,1.0
0.0061,0.04956,100.0,
1.0,0.0,0.0,350.0,420.0,504.0,0,1,1.5,0.5,1.5,1.5,33,0,0.0,0.0
1.0,0.0
26,74,0,' 1',1,1,1,0.0,0.0,2,'            ',1,0,1.0,0,1.0,0,1.0,0,1.0
0.0061,0.04956,100.0,
1.0,0.0,0.0,350.0,420.0,504.0,0,1,1.5,0.5,1.5,1.5,33,0,0.0,0.0
1.0,0.0
27,70,0,' 1',1,1,1,0.0,0.0,2,'            ',1,0,1.0,0,1.0,0,1.0,0,1.0
0.0061,0.04956,100.0,
1.0,0.0,0.0,350.0,420.0,504.0,0,1,1.5,0.5,1.5,1.5,33,0,0.0,0.0
1.0,0.0
29,73,0,' 1',1,1,1,0.0,0.0,2,'            ',1,0,1.0,0,1.0,0,1.0,0,1.0
0.0061,0.04956,100.0,
1.0,0.0,0.0,350.0,420.0,504.0,0,1,1.5,0.5,1.5,1.5,33,0,0.0,0.0
1.0,0.0
30,63,0,' 1',1,1,1,0.0,0.0,2,'            ',1,0,1.0,0,1.0,0,1.0,0,1.0
0.0061,0.04956,100.0,
1.0,0.0,0.0,350.0,420.0,504.0,0,1,1.5,0.5,1.5,1.5,33,0,0.0,0.0
1.0,0.0
31,85,0,' 1',1,1,1,0.0,0.0,2,'            ',1,0,1.0,0,1.0,0,1.0,0,1.0
0.0061,0.04956,100.0,
1.0,0.0,0.0,350.0,420.0,504.0,0,1,1.5,0.5,1.5,1.5,33,0,0.0,0.0
1.0,0.0
32,87,0,' 1',1,1,1,0.0,0.0,2,'            ',1,0,1.0,0,1.0,0,1.0,0,1.0
0.0061,0.04956,100.0,
1.0,0.0,0.0,350.0,420.0,504.0,0,1,1.5,0.5,1.5,1.5,33,0,0.0,0.0
1.0,0.0
33,75,0,' 1',1,1,1,0.0,0.0,2,'            ',1,0,1.0,0,1.0,0,1.0,0,1.0
0.0061,0.04956,100.0,
1.0,0.0,0.0,350.0,420.0,504.0,0,1,1.5,0.5,1.5,1.5,33,0,0.0,0.0
1.0,0.0
34,78,0,' 1',1,1,1,0.0,0.0,2,'            ',1,0,1.0,0,1.0,0,1.0,0,1.0
0.0061,0.04956,100.0,
1.0,0.0,0.0,350.0,420.0,504.0,0,1,1.5,0.5,1.5,1.5,33,0,0.0,0.0
1.0,0.0
35,95,0,' 1',1,1,1,0.0,0.0,2,'            ',1,0,1.0,0,1.0,0,1.0,0,1.0
0.0061,0.04956,100.0,
1.0,0.0,0.0,350.0,420.0,504.0,0,1,1.5,0.5,1.5,1.5,33,0,0.0,0.0
1.0,0.0
36,77,0,' 1',1,1,1,0.0,0.0,2,'            ',1,0,1.0,0,1.0,0,1.0,0,1.0
0.0061,0.04956,100.0,
1.0,0.0,0.0,350.0,420.0,504.0,0,1,1.5,0.5,1.5,1.5,33,0,0.0,0.0
1.0,0.0
37,66,0,' 1',1,1,1,0.0,0.0,2,'            ',1,0,1.0,0,1.0,0,1.0,0,1.0
0.0061,0.04956,100.0,
1.0,0.0,0.0,350.0,420.0,504.0,0,1,1.5,0.5,1.5,1.5,33,0,0.0,0.0
1.0,0.0
38,96,0,' 1',1,1,1,0.0,0.0,2,'            ',1,0,1.0,0,1.0,0,1.0,0,1.0
0.0061,0.04956,100.0,
1.0,0.0,0.0,350.0,420.0,504.0,0,1,1.5,0.5,1.5,1.5,33,0,0.0,0.0
1.0,0.0
40,68,0,' 1',1,1,1,0.0,0.0,2,'            ',1,0,1.0,0,1.0,0,1.0,0,1.0
0.0061,0.04956,100.0,
1.0,0.0,0.0,350.0,420.0,504.0,0,1,1.5,0.5,1.5,1.5,33,0,0.0,0.0
1.0,0.0
41,78,0,' 1',1,1,1,0.0,0.0,2,'            ',1,0,1.0,0,1.0,0,1.0,0,1.0
0.0061,0.04956,100.0,
1.0,0.0,0.0,350.0,420.0,504.0,0,1,1.5,0.5,1.5,1.5,33,0,0.0,0.0
1.0,0.0
42,79,0,' 1',1,1,1,0.0,0.0,2,'            ',1,0,1.0,0,1.0,0,1.0,0,1.0
0.0061,0.04956,100.0,
1.0,0.0,0.0,350.0,420.0,504.0,0,1,1.5,0.5,1.5,1.5,33,0,0.0,0.0
1.0,0.0
43,67,0,' 1',1,1,1,0.0,0.0,2,'            ',1,0,1.0,0,1.0,0,1.0,0,1.0
0.0061,0.04956,100.0,
1.0,0.0,0.0,350.0,420.0,504.0,0,1,1.5,0.5,1.5,1.5,33,0,0.0,0.0
1.0,0.0
44,80,0,' 1',1,1,1,0.0,0.0,2,'            ',1,0,1.0,0,1.0,0,1.0,0,1.0
0.0061,0.04956,100.0,
1.0,0.0,0.0,350.0,420.0,504.0,0,1,1.5,0.5,1.5,1.5,33,0,0.0,0.0
1.0,0.0
45,92,0,' 1',1,1,1,0.0,0.0,2,'            ',1,0,1.0,0,1.0,0,1.0,0,1.0
0.0061,0.04956,100.0,
1.0,0.0,0.0,350.0,420.0,504.0,0,1,1.5,0.5,1.5,1.5,33,0,0.0,0.0
1.0,0.0
47,84,0,' 1',1,1,1,0.0,0.0,2,'            ',1,0,1.0,0,1.0,0,1.0,0,1.0
0.0061,0.04956,100.0,
1.0,0.0,0.0,350.0,420.0,504.0,0,1,1.5,0.5,1.5,1.5,33,0,0.0,0.0
1.0,0.0
49,78,0,' 1',1,1,1,0.0,0.0,2,'            ',1,0,1.0,0,1.0,0,1.0,0,1.0
0.0061,0.04956,100.0,
1.0,0.0,0.0,350.0,420.0,504.0,0,1,1.5,0.5,1.5,1.5,33,0,0.0,0.0
1.0,0.0
50,67,0,' 1',1,1,1,0.0,0.0,2,'            ',1,0,1.0,0,1.0,0,1.0,0,1.0
0.0061,0.04956,100.0,
1.0,0.0,0.0,350.0,420.0,504.0,0,1,1.5,0.5,1.5,1.5,33,0,0.0,0.0
1.0,0.0
51,9,0,' 1',1,1,1,0.0,0.0,2,'            ',1,0,1.0,0,1.0,0,1.0,0,1.0
0.00228,0.07997,100.0,
1.0,0.0,0.0,700.0,840.0,1008.0,0,1,1.5,0.5,1.5,1.5,33,0,0.0,0.0
1.0,0.0
52,30,0,' 1',1,1,1,0.0,0.0,2,'            ',1,0,1.0,0,1.0,0,1.0,0,1.0
0.00228,0.07997,100.0,
1.0,0.0,0.0,700.0,840.0,1008.0,0,1,1.5,0.5,1.5,1.5,33,0,0.0,0.0
1.0,0.0
53,10,0,' 1',1,1,1,0.0,0.0,2,'            ',1,0,1.0,0,1.0,0,1.0,0,1.0
0.00228,0.07997,100.0,
1.0,0.0,0.0,700.0,840.0,1008.0,0,1,1.5,0.5,1.5,1.5,33,0,0.0,0.0
1.0,0.0
54,2,0,' 1',1,1,1,0.0,0.0,2,'            ',1,0,1.0,0,1.0,0,1.0,0,1.0
0.00228,0.07997,100.0,
1.0,0.0,0.0,700.0,840.0,1008.0,0,1,1.5,0.5,1.5,1.5,33,0,0.0,0.0
1.0,0.0
55,32,0,' 1',1,1,1,0.0,0.0,2,'            ',1,0,1.0,0,1.0,0,1.0,0,1.0
0.00228,0.07997,100.0,
1.0,0.0,0.0,700.0,840.0,1008.0,0,1,1.5,0.5,1.5,1.5,33,0,0.0,0.0
1.0,0.0
56,9,0,' 1',1,1,1,0.0,0.0,2,'            ',1,0,1.0,0,1.0,0,1.0,0,1.0
0.001630692,0.0126704768,100.0,
1.0,0.0,0.0,700.0,840.0,1008.0,0,1,1.5,0.5,1.5,1.5,33,0,0.0,0.0
1.0,0.0
56,34,0,' 1',1,1,1,0.0,0.0,2,'            ',1,0,1.0,0,1.0,0,1.0,0,1.0
0.00228,0.07997,100.0,
1.0,0.0,0.0,700.0,840.0,1008.0,0,1,1.5,0.5,1.5,1.5,33,0,0.0,0.0
1.0,0.0
57,1,0,' 1',1,1,1,0.0,0.0,2,'            ',1,0,1.0,0,1.0,0,1.0,0,1.0
0.00228,0.07997,100.0,
1.0,0.0,0.0,700.0,840.0,1008.0,0,1,1.5,0.5,1.5,1.5,33,0,0.0,0.0
1.0,0.0
58,35,0,' 1',1,1,1,0.0,0.0,2,'            ',1,0,1.0,0,1.0,0,1.0,0,1.0
0.00228,0.07997,100.0,
1.0,0.0,0.0,700.0,840.0,1008.0,0,1,1.5,0.5,1.5,1.5,33,0,0.0,0.0
1.0,0.0
...
0 / END OF TRANSFORMER DATA, BEGIN AREA INTERCHANGE DATA
1,0,0.0,10.0,'            '
0 / END OF AREA INTERCHANGE DATA, BEGIN TWO-TERMINAL DC LINE DATA
0 / END OF TWO-TERMINAL DC LINE DATA, BEGIN VSC DC LINE DATA
0 / END OF VSC DC LINE DATA, BEGIN SWITCHED SHUNT DATA
3,2,1.075,0.9875,0,100.0,'            ',35.39911214,15,-1.0,40,1.0,0,0.0,0,0.0,0,0.0,0,0.0,0,0.0,0,0.0
4,2,1.075,0.9875,0,100.0,'            ',12.28417397,15,-1.0,40,1.0,0,0.0,0,0.0,0,0.0,0,0.0,0,0.0,0,0.0
5,2,1.075,0.9875,0,100.0,'            ',-2.17677133,15,-1.0,40,1.0,0,0.0,0,0.0,0,0.0,0,0.0,0,0.0,0,0.0
8,2,1.075,0.9875,0,100.0,'            ',-11.17278099,15,-1.0,40,1.0,0,0.0,0,0.0,0,0.0,0,0.0,0,0.0,0,0.0
20,2,1.075,0.9875,0,100.0,'            ',-8.68349874,15,-1.0,40,1.0,0,0.0,0,0.0,0,0.0,0,0.0,0,0.0,0,0.0
21,2,1.075,0.9875,0,100.0,'            ',36.37964937,15,-1.0,40,1.0,0,0.0,0,0.0,0,0.0,0,0.0,0,0.0,0,0.0
26,2,1.075,0.9875,0,100.0,'            ',-3.96909945,15,-1.0,40,1.0,0,0.0,0,0.0,0,0.0,0,0.0,0,0.0,0,0.0
29,2,1.075,0.9875,0,100.0,'            ',36.94590327,15,-1.0,40,1.0,0,0.0,0,0.0,0,0.0,0,0.0,0,0.0,0,0.0
35,2,1.075,0.9875,0,100.0,'            ',15.4594885,15,-1.0,40,1.0,0,0.0,0,0.0,0,0.0,0,0.0,0,0.0,0,0.0
38,2,1.075,0.9875,0,100.0,'            ',21.84948135,15,-1.0,40,1.0,0,0.0,0,0.0,0,0.0,0,0.0,0,0.0,0,0.0
48,2,1.075,0.9875,0,100.0,'            ',38.28227663,15,-1.0,40,1.0,0,0.0,0,0.0,0,0.0,0,0.0,0,0.0,0,0.0
0 / END OF SWITCHED SHUNT DATA, BEGIN TRANSFORMER IMPEDANCE CORRECTION DATA
0 / END OF TRANSFORMER IMPEDANCE CORRECTION DATA, BEGIN MULTI-TERMINAL DC LINE DATA
0 / END OF MULTI-TERMINAL DC LINE DATA, BEGIN MULTI-SECTION LINE GROUPING DATA
0 / END OF MULTI-SECTION LINE GROUPING DATA, BEGIN ZONE DATA
0 / END OF ZONE DATA, BEGIN INTER-AREA TRANSFER DATA
0 / END OF INTER-AREA TRANSFER DATA, BEGIN OWNER DATA
0 / END OF OWNER DATA, BEGIN FACTS CONTROL DEVICE DATA
0 / END OF FACTS CONTROL DEVICE DATA, END OF CASE DATA
